MODEL 1
REMARK VINA RESULT:      -6.2      0.000      0.000
REMARK  5 active torsions:
REMARK  status: ('A' for Active; 'I' for Inactive)
REMARK    1  A    between atoms: O_1  and  C_7 
REMARK    2  A    between atoms: O_2  and  C_8 
REMARK    3  A    between atoms: O_3  and  C_9 
REMARK    4  A    between atoms: O_4  and  C_12 
REMARK    5  A    between atoms: C_6  and  C_12 
ROOT
HETATM    1  O   UNK     0      84.820  53.501  55.281  0.00  0.00    -0.356 OA
HETATM    2  H   UNK     0      84.474  53.771  56.149  0.00  0.00     0.218 HD
ENDROOT
BRANCH   1   3
HETATM    3  C   UNK     0      84.766  52.141  55.200  0.00  0.00     0.132 A 
HETATM    4  C   UNK     0      85.654  51.363  55.943  0.00  0.00     0.102 A 
HETATM    5  C   UNK     0      85.599  49.972  55.862  0.00  0.00     0.057 A 
HETATM    6  C   UNK     0      84.657  49.358  55.037  0.00  0.00     0.043 A 
HETATM    7  C   UNK     0      83.769  50.136  54.294  0.00  0.00     0.057 A 
HETATM    8  C   UNK     0      83.824  51.527  54.375  0.00  0.00     0.102 A 
BRANCH   4   9
HETATM    9  O   UNK     0      86.580  51.951  56.752  0.00  0.00    -0.358 OA
HETATM   10  H   UNK     0      86.157  52.198  57.592  0.00  0.00     0.217 HD
ENDBRANCH   4   9
BRANCH   6  11
HETATM   11  C   UNK     0      84.599  47.907  54.953  0.00  0.00     0.176 C 
HETATM   12  O   UNK     0      85.477  47.132  55.344  0.00  0.00    -0.646 OA
BRANCH  11  13
HETATM   13  O   UNK     0      83.445  47.465  54.383  0.00  0.00    -0.773 OA
HETATM   14  H   UNK     0      82.699  47.463  55.021  0.00  0.00     0.167 HD
ENDBRANCH  11  13
ENDBRANCH   6  11
BRANCH   8  15
HETATM   15  O   UNK     0      82.949  52.276  53.646  0.00  0.00    -0.358 OA
HETATM   16  H   UNK     0      82.050  51.946  53.815  0.00  0.00     0.217 HD
ENDBRANCH   8  15
ENDBRANCH   1   3
TORSDOF 5
ENDMDL
MODEL 2
REMARK VINA RESULT:      -5.8      2.421      3.602
REMARK  5 active torsions:
REMARK  status: ('A' for Active; 'I' for Inactive)
REMARK    1  A    between atoms: O_1  and  C_7 
REMARK    2  A    between atoms: O_2  and  C_8 
REMARK    3  A    between atoms: O_3  and  C_9 
REMARK    4  A    between atoms: O_4  and  C_12 
REMARK    5  A    between atoms: C_6  and  C_12 
ROOT
HETATM    1  O   UNK     0      88.091  51.412  55.987  0.00  0.00    -0.356 OA
HETATM    2  H   UNK     0      88.582  52.201  55.698  0.00  0.00     0.218 HD
ENDROOT
BRANCH   1   3
HETATM    3  C   UNK     0      86.893  51.389  55.339  0.00  0.00     0.132 A 
HETATM    4  C   UNK     0      86.835  51.640  53.968  0.00  0.00     0.102 A 
HETATM    5  C   UNK     0      85.610  51.615  53.304  0.00  0.00     0.057 A 
HETATM    6  C   UNK     0      84.439  51.340  54.010  0.00  0.00     0.043 A 
HETATM    7  C   UNK     0      84.496  51.089  55.382  0.00  0.00     0.057 A 
HETATM    8  C   UNK     0      85.721  51.114  56.046  0.00  0.00     0.102 A 
BRANCH   4   9
HETATM    9  O   UNK     0      87.972  51.911  53.267  0.00  0.00    -0.358 OA
HETATM   10  H   UNK     0      88.711  51.410  53.654  0.00  0.00     0.217 HD
ENDBRANCH   4   9
BRANCH   6  11
HETATM   11  C   UNK     0      83.160  51.314  53.318  0.00  0.00     0.176 C 
HETATM   12  O   UNK     0      82.052  51.343  53.862  0.00  0.00    -0.646 OA
BRANCH  11  13
HETATM   13  O   UNK     0      83.302  51.250  51.966  0.00  0.00    -0.773 OA
HETATM   14  H   UNK     0      83.831  50.471  51.690  0.00  0.00     0.167 HD
ENDBRANCH  11  13
ENDBRANCH   6  11
BRANCH   8  15
HETATM   15  O   UNK     0      85.763  50.865  57.385  0.00  0.00    -0.358 OA
HETATM   16  H   UNK     0      86.622  51.169  57.726  0.00  0.00     0.217 HD
ENDBRANCH   8  15
ENDBRANCH   1   3
TORSDOF 5
ENDMDL
MODEL 3
REMARK VINA RESULT:      -5.8      2.352      4.335
REMARK  5 active torsions:
REMARK  status: ('A' for Active; 'I' for Inactive)
REMARK    1  A    between atoms: O_1  and  C_7 
REMARK    2  A    between atoms: O_2  and  C_8 
REMARK    3  A    between atoms: O_3  and  C_9 
REMARK    4  A    between atoms: O_4  and  C_12 
REMARK    5  A    between atoms: C_6  and  C_12 
ROOT
HETATM    1  O   UNK     0      82.627  51.144  51.943  0.00  0.00    -0.356 OA
HETATM    2  H   UNK     0      82.790  50.857  51.028  0.00  0.00     0.218 HD
ENDROOT
BRANCH   1   3
HETATM    3  C   UNK     0      83.830  51.336  52.554  0.00  0.00     0.132 A 
HETATM    4  C   UNK     0      84.709  52.308  52.077  0.00  0.00     0.102 A 
HETATM    5  C   UNK     0      85.939  52.506  52.702  0.00  0.00     0.057 A 
HETATM    6  C   UNK     0      86.292  51.731  53.807  0.00  0.00     0.043 A 
HETATM    7  C   UNK     0      85.413  50.758  54.285  0.00  0.00     0.057 A 
HETATM    8  C   UNK     0      84.183  50.561  53.659  0.00  0.00     0.102 A 
BRANCH   4   9
HETATM    9  O   UNK     0      84.375  53.071  50.998  0.00  0.00    -0.358 OA
HETATM   10  H   UNK     0      83.976  53.903  51.308  0.00  0.00     0.217 HD
ENDBRANCH   4   9
BRANCH   6  11
HETATM   11  C   UNK     0      87.575  51.938  54.460  0.00  0.00     0.176 C 
HETATM   12  O   UNK     0      88.076  53.036  54.722  0.00  0.00    -0.646 OA
BRANCH  11  13
HETATM   13  O   UNK     0      88.196  50.767  54.769  0.00  0.00    -0.773 OA
HETATM   14  H   UNK     0      87.690  49.989  54.448  0.00  0.00     0.167 HD
ENDBRANCH  11  13
ENDBRANCH   6  11
BRANCH   8  15
HETATM   15  O   UNK     0      83.333  49.609  54.138  0.00  0.00    -0.358 OA
HETATM   16  H   UNK     0      83.202  49.767  55.089  0.00  0.00     0.217 HD
ENDBRANCH   8  15
ENDBRANCH   1   3
TORSDOF 5
ENDMDL
MODEL 4
REMARK VINA RESULT:      -5.8      3.228      4.830
REMARK  5 active torsions:
REMARK  status: ('A' for Active; 'I' for Inactive)
REMARK    1  A    between atoms: O_1  and  C_7 
REMARK    2  A    between atoms: O_2  and  C_8 
REMARK    3  A    between atoms: O_3  and  C_9 
REMARK    4  A    between atoms: O_4  and  C_12 
REMARK    5  A    between atoms: C_6  and  C_12 
ROOT
HETATM    1  O   UNK     0      88.218  51.004  55.785  0.00  0.00    -0.356 OA
HETATM    2  H   UNK     0      88.281  50.106  55.416  0.00  0.00     0.218 HD
ENDROOT
BRANCH   1   3
HETATM    3  C   UNK     0      87.334  51.717  55.031  0.00  0.00     0.132 A 
HETATM    4  C   UNK     0      87.595  51.948  53.681  0.00  0.00     0.102 A 
HETATM    5  C   UNK     0      86.690  52.676  52.909  0.00  0.00     0.057 A 
HETATM    6  C   UNK     0      85.524  53.176  53.488  0.00  0.00     0.043 A 
HETATM    7  C   UNK     0      85.262  52.945  54.839  0.00  0.00     0.057 A 
HETATM    8  C   UNK     0      86.167  52.216  55.610  0.00  0.00     0.102 A 
BRANCH   4   9
HETATM    9  O   UNK     0      88.732  51.466  53.104  0.00  0.00    -0.358 OA
HETATM   10  H   UNK     0      88.799  51.811  52.196  0.00  0.00     0.217 HD
ENDBRANCH   4   9
BRANCH   6  11
HETATM   11  C   UNK     0      84.580  53.935  52.683  0.00  0.00     0.176 C 
HETATM   12  O   UNK     0      83.923  54.905  53.075  0.00  0.00    -0.646 OA
BRANCH  11  13
HETATM   13  O   UNK     0      84.482  53.461  51.411  0.00  0.00    -0.773 OA
HETATM   14  H   UNK     0      84.833  52.548  51.333  0.00  0.00     0.167 HD
ENDBRANCH  11  13
ENDBRANCH   6  11
BRANCH   8  15
HETATM   15  O   UNK     0      85.898  51.996  56.928  0.00  0.00    -0.358 OA
HETATM   16  H   UNK     0      86.392  52.649  57.453  0.00  0.00     0.217 HD
ENDBRANCH   8  15
ENDBRANCH   1   3
TORSDOF 5
ENDMDL
MODEL 5
REMARK VINA RESULT:      -5.8      2.565      4.286
REMARK  5 active torsions:
REMARK  status: ('A' for Active; 'I' for Inactive)
REMARK    1  A    between atoms: O_1  and  C_7 
REMARK    2  A    between atoms: O_2  and  C_8 
REMARK    3  A    between atoms: O_3  and  C_9 
REMARK    4  A    between atoms: O_4  and  C_12 
REMARK    5  A    between atoms: C_6  and  C_12 
ROOT
HETATM    1  O   UNK     0      82.989  51.241  51.486  0.00  0.00    -0.356 OA
HETATM    2  H   UNK     0      82.637  50.357  51.687  0.00  0.00     0.218 HD
ENDROOT
BRANCH   1   3
HETATM    3  C   UNK     0      84.119  51.433  52.223  0.00  0.00     0.132 A 
HETATM    4  C   UNK     0      84.274  50.780  53.446  0.00  0.00     0.102 A 
HETATM    5  C   UNK     0      85.431  50.974  54.200  0.00  0.00     0.057 A 
HETATM    6  C   UNK     0      86.434  51.823  53.733  0.00  0.00     0.043 A 
HETATM    7  C   UNK     0      86.279  52.477  52.509  0.00  0.00     0.057 A 
HETATM    8  C   UNK     0      85.122  52.282  51.755  0.00  0.00     0.102 A 
BRANCH   4   9
HETATM    9  O   UNK     0      83.301  49.948  53.914  0.00  0.00    -0.358 OA
HETATM   10  H   UNK     0      83.582  49.580  54.770  0.00  0.00     0.217 HD
ENDBRANCH   4   9
BRANCH   6  11
HETATM   11  C   UNK     0      87.640  52.026  54.518  0.00  0.00     0.176 C 
HETATM   12  O   UNK     0      88.279  53.081  54.590  0.00  0.00    -0.646 OA
BRANCH  11  13
HETATM   13  O   UNK     0      88.016  50.905  55.193  0.00  0.00    -0.773 OA
HETATM   14  H   UNK     0      88.183  50.152  54.586  0.00  0.00     0.167 HD
ENDBRANCH  11  13
ENDBRANCH   6  11
BRANCH   8  15
HETATM   15  O   UNK     0      84.985  52.924  50.561  0.00  0.00    -0.358 OA
HETATM   16  H   UNK     0      85.517  53.738  50.589  0.00  0.00     0.217 HD
ENDBRANCH   8  15
ENDBRANCH   1   3
TORSDOF 5
ENDMDL
MODEL 6
REMARK VINA RESULT:      -5.6     23.995     25.612
REMARK  5 active torsions:
REMARK  status: ('A' for Active; 'I' for Inactive)
REMARK    1  A    between atoms: O_1  and  C_7 
REMARK    2  A    between atoms: O_2  and  C_8 
REMARK    3  A    between atoms: O_3  and  C_9 
REMARK    4  A    between atoms: O_4  and  C_12 
REMARK    5  A    between atoms: C_6  and  C_12 
ROOT
HETATM    1  O   UNK     0      95.225  37.146  33.198  0.00  0.00    -0.356 OA
HETATM    2  H   UNK     0      95.571  38.037  33.015  0.00  0.00     0.218 HD
ENDROOT
BRANCH   1   3
HETATM    3  C   UNK     0      95.088  37.007  34.547  0.00  0.00     0.132 A 
HETATM    4  C   UNK     0      93.819  37.025  35.126  0.00  0.00     0.102 A 
HETATM    5  C   UNK     0      93.679  36.881  36.505  0.00  0.00     0.057 A 
HETATM    6  C   UNK     0      94.808  36.721  37.309  0.00  0.00     0.043 A 
HETATM    7  C   UNK     0      96.078  36.704  36.730  0.00  0.00     0.057 A 
HETATM    8  C   UNK     0      96.218  36.847  35.350  0.00  0.00     0.102 A 
BRANCH   4   9
HETATM    9  O   UNK     0      92.708  37.181  34.352  0.00  0.00    -0.358 OA
HETATM   10  H   UNK     0      92.728  36.527  33.631  0.00  0.00     0.217 HD
ENDBRANCH   4   9
BRANCH   6  11
HETATM   11  C   UNK     0      94.662  36.571  38.748  0.00  0.00     0.176 C 
HETATM   12  O   UNK     0      95.057  37.378  39.595  0.00  0.00    -0.646 OA
BRANCH  11  13
HETATM   13  O   UNK     0      94.026  35.416  39.088  0.00  0.00    -0.773 OA
HETATM   14  H   UNK     0      93.133  35.359  38.686  0.00  0.00     0.167 HD
ENDBRANCH  11  13
ENDBRANCH   6  11
BRANCH   8  15
HETATM   15  O   UNK     0      97.463  36.826  34.798  0.00  0.00    -0.358 OA
HETATM   16  H   UNK     0      97.808  37.736  34.787  0.00  0.00     0.217 HD
ENDBRANCH   8  15
ENDBRANCH   1   3
TORSDOF 5
ENDMDL
MODEL 7
REMARK VINA RESULT:      -5.6      2.194      3.403
REMARK  5 active torsions:
REMARK  status: ('A' for Active; 'I' for Inactive)
REMARK    1  A    between atoms: O_1  and  C_7 
REMARK    2  A    between atoms: O_2  and  C_8 
REMARK    3  A    between atoms: O_3  and  C_9 
REMARK    4  A    between atoms: O_4  and  C_12 
REMARK    5  A    between atoms: C_6  and  C_12 
ROOT
HETATM    1  O   UNK     0      81.716  50.210  55.934  0.00  0.00    -0.356 OA
HETATM    2  H   UNK     0      81.431  49.508  55.324  0.00  0.00     0.218 HD
ENDROOT
BRANCH   1   3
HETATM    3  C   UNK     0      83.020  50.507  55.668  0.00  0.00     0.132 A 
HETATM    4  C   UNK     0      84.022  50.104  56.551  0.00  0.00     0.102 A 
HETATM    5  C   UNK     0      85.355  50.407  56.278  0.00  0.00     0.057 A 
HETATM    6  C   UNK     0      85.689  51.114  55.123  0.00  0.00     0.043 A 
HETATM    7  C   UNK     0      84.687  51.517  54.240  0.00  0.00     0.057 A 
HETATM    8  C   UNK     0      83.353  51.214  54.512  0.00  0.00     0.102 A 
BRANCH   4   9
HETATM    9  O   UNK     0      83.709  49.414  57.683  0.00  0.00    -0.358 OA
HETATM   10  H   UNK     0      82.900  49.791  58.072  0.00  0.00     0.217 HD
ENDBRANCH   4   9
BRANCH   6  11
HETATM   11  C   UNK     0      87.080  51.428  54.838  0.00  0.00     0.176 C 
HETATM   12  O   UNK     0      87.506  51.883  53.772  0.00  0.00    -0.646 OA
BRANCH  11  13
HETATM   13  O   UNK     0      87.899  51.167  55.893  0.00  0.00    -0.773 OA
HETATM   14  H   UNK     0      88.762  51.626  55.809  0.00  0.00     0.167 HD
ENDBRANCH  11  13
ENDBRANCH   6  11
BRANCH   8  15
HETATM   15  O   UNK     0      82.384  51.612  53.640  0.00  0.00    -0.358 OA
HETATM   16  H   UNK     0      81.524  51.546  54.089  0.00  0.00     0.217 HD
ENDBRANCH   8  15
ENDBRANCH   1   3
TORSDOF 5
ENDMDL
MODEL 8
REMARK VINA RESULT:      -5.2      2.465      4.528
REMARK  5 active torsions:
REMARK  status: ('A' for Active; 'I' for Inactive)
REMARK    1  A    between atoms: O_1  and  C_7 
REMARK    2  A    between atoms: O_2  and  C_8 
REMARK    3  A    between atoms: O_3  and  C_9 
REMARK    4  A    between atoms: O_4  and  C_12 
REMARK    5  A    between atoms: C_6  and  C_12 
ROOT
HETATM    1  O   UNK     0      83.381  50.658  56.400  0.00  0.00    -0.356 OA
HETATM    2  H   UNK     0      83.407  49.805  55.933  0.00  0.00     0.218 HD
ENDROOT
BRANCH   1   3
HETATM    3  C   UNK     0      84.334  51.472  55.863  0.00  0.00     0.132 A 
HETATM    4  C   UNK     0      84.524  52.756  56.373  0.00  0.00     0.102 A 
HETATM    5  C   UNK     0      85.499  53.588  55.825  0.00  0.00     0.057 A 
HETATM    6  C   UNK     0      86.284  53.138  54.764  0.00  0.00     0.043 A 
HETATM    7  C   UNK     0      86.094  51.854  54.253  0.00  0.00     0.057 A 
HETATM    8  C   UNK     0      85.119  51.021  54.801  0.00  0.00     0.102 A 
BRANCH   4   9
HETATM    9  O   UNK     0      83.762  53.208  57.409  0.00  0.00    -0.358 OA
HETATM   10  H   UNK     0      83.084  52.542  57.620  0.00  0.00     0.217 HD
ENDBRANCH   4   9
BRANCH   6  11
HETATM   11  C   UNK     0      87.302  54.006  54.193  0.00  0.00     0.176 C 
HETATM   12  O   UNK     0      88.189  54.584  54.829  0.00  0.00    -0.646 OA
BRANCH  11  13
HETATM   13  O   UNK     0      87.184  54.127  52.842  0.00  0.00    -0.773 OA
HETATM   14  H   UNK     0      86.311  54.494  52.584  0.00  0.00     0.167 HD
ENDBRANCH  11  13
ENDBRANCH   6  11
BRANCH   8  15
HETATM   15  O   UNK     0      84.945  49.769  54.294  0.00  0.00    -0.358 OA
HETATM   16  H   UNK     0      85.665  49.203  54.624  0.00  0.00     0.217 HD
ENDBRANCH   8  15
ENDBRANCH   1   3
TORSDOF 5
ENDMDL
MODEL 9
REMARK VINA RESULT:      -5.1     16.526     17.957
REMARK  5 active torsions:
REMARK  status: ('A' for Active; 'I' for Inactive)
REMARK    1  A    between atoms: O_1  and  C_7 
REMARK    2  A    between atoms: O_2  and  C_8 
REMARK    3  A    between atoms: O_3  and  C_9 
REMARK    4  A    between atoms: O_4  and  C_12 
REMARK    5  A    between atoms: C_6  and  C_12 
ROOT
HETATM    1  O   UNK     0      70.787  60.741  46.753  0.00  0.00    -0.356 OA
HETATM    2  H   UNK     0      71.322  60.504  45.975  0.00  0.00     0.218 HD
ENDROOT
BRANCH   1   3
HETATM    3  C   UNK     0      70.467  59.595  47.419  0.00  0.00     0.132 A 
HETATM    4  C   UNK     0      71.444  58.627  47.651  0.00  0.00     0.102 A 
HETATM    5  C   UNK     0      71.117  57.455  48.333  0.00  0.00     0.057 A 
HETATM    6  C   UNK     0      69.813  57.251  48.783  0.00  0.00     0.043 A 
HETATM    7  C   UNK     0      68.836  58.219  48.552  0.00  0.00     0.057 A 
HETATM    8  C   UNK     0      69.163  59.391  47.869  0.00  0.00     0.102 A 
BRANCH   4   9
HETATM    9  O   UNK     0      72.721  58.814  47.215  0.00  0.00    -0.358 OA
HETATM   10  H   UNK     0      73.332  58.343  47.808  0.00  0.00     0.217 HD
ENDBRANCH   4   9
BRANCH   6  11
HETATM   11  C   UNK     0      69.473  56.029  49.496  0.00  0.00     0.176 C 
HETATM   12  O   UNK     0      68.327  55.641  49.742  0.00  0.00    -0.646 OA
BRANCH  11  13
HETATM   13  O   UNK     0      70.574  55.327  49.880  0.00  0.00    -0.773 OA
HETATM   14  H   UNK     0      71.238  55.267  49.161  0.00  0.00     0.167 HD
ENDBRANCH  11  13
ENDBRANCH   6  11
BRANCH   8  15
HETATM   15  O   UNK     0      68.200  60.330  47.651  0.00  0.00    -0.358 OA
HETATM   16  H   UNK     0      68.635  61.158  47.384  0.00  0.00     0.217 HD
ENDBRANCH   8  15
ENDBRANCH   1   3
TORSDOF 5
ENDMDL
