MODEL 1
REMARK VINA RESULT:      -5.6      0.000      0.000
REMARK  5 active torsions:
REMARK  status: ('A' for Active; 'I' for Inactive)
REMARK    1  A    between atoms: O_1  and  C_8 
REMARK    2  A    between atoms: O_2  and  C_9 
REMARK    3  A    between atoms: O_3  and  C_13 
REMARK    4  A    between atoms: C_5  and  C_11 
REMARK    5  A    between atoms: C_12  and  C_13 
ROOT
HETATM    1  O   UNK     0      48.547  -4.702  39.461  0.00  0.00    -0.358 OA
HETATM    2  H   UNK     0      48.157  -4.245  40.226  0.00  0.00     0.217 HD
ENDROOT
BRANCH   1   3
HETATM    3  C   UNK     0      49.699  -4.062  39.119  0.00  0.00     0.099 A 
HETATM    4  C   UNK     0      49.634  -2.873  38.391  0.00  0.00     0.050 A 
HETATM    5  C   UNK     0      50.808  -2.208  38.035  0.00  0.00    -0.033 A 
HETATM    6  C   UNK     0      52.046  -2.731  38.409  0.00  0.00     0.014 A 
HETATM    7  C   UNK     0      52.110  -3.919  39.136  0.00  0.00     0.040 A 
HETATM    8  C   UNK     0      50.937  -4.584  39.491  0.00  0.00     0.098 A 
BRANCH   5   9
HETATM    9  C   UNK     0      50.740  -0.970  37.276  0.00  0.00     0.018 C 
HETATM   10  C   UNK     0      49.591  -0.369  36.977  0.00  0.00     0.082 C 
BRANCH  10  11
HETATM   11  C   UNK     0      49.631   0.878  36.185  0.00  0.00     0.165 C 
HETATM   12  O   UNK     0      50.472   1.183  35.356  0.00  0.00    -0.647 OA
BRANCH  11  13
HETATM   13  O   UNK     0      48.570   1.644  36.529  0.00  0.00    -0.773 OA
HETATM   14  H   UNK     0      48.097   1.286  37.311  0.00  0.00     0.167 HD
ENDBRANCH  11  13
ENDBRANCH  10  11
ENDBRANCH   5   9
BRANCH   8  15
HETATM   15  O   UNK     0      51.013  -5.743  40.202  0.00  0.00    -0.358 OA
HETATM   16  H   UNK     0      51.206  -6.477  39.594  0.00  0.00     0.217 HD
ENDBRANCH   8  15
ENDBRANCH   1   3
TORSDOF 5
ENDMDL
MODEL 2
REMARK VINA RESULT:      -5.6     36.336     37.463
REMARK  5 active torsions:
REMARK  status: ('A' for Active; 'I' for Inactive)
REMARK    1  A    between atoms: O_1  and  C_8 
REMARK    2  A    between atoms: O_2  and  C_9 
REMARK    3  A    between atoms: O_3  and  C_13 
REMARK    4  A    between atoms: C_5  and  C_11 
REMARK    5  A    between atoms: C_12  and  C_13 
ROOT
HETATM    1  O   UNK     0      26.610  10.191  65.653  0.00  0.00    -0.358 OA
HETATM    2  H   UNK     0      27.051  10.356  64.803  0.00  0.00     0.217 HD
ENDROOT
BRANCH   1   3
HETATM    3  C   UNK     0      25.997   8.976  65.591  0.00  0.00     0.099 A 
HETATM    4  C   UNK     0      26.751   7.841  65.290  0.00  0.00     0.050 A 
HETATM    5  C   UNK     0      26.134   6.591  65.224  0.00  0.00    -0.033 A 
HETATM    6  C   UNK     0      24.764   6.477  65.459  0.00  0.00     0.014 A 
HETATM    7  C   UNK     0      24.011   7.612  65.760  0.00  0.00     0.040 A 
HETATM    8  C   UNK     0      24.628   8.861  65.825  0.00  0.00     0.098 A 
BRANCH   5   9
HETATM    9  C   UNK     0      26.920   5.409  64.910  0.00  0.00     0.018 C 
HETATM   10  C   UNK     0      27.516   5.231  63.733  0.00  0.00     0.082 C 
BRANCH  10  11
HETATM   11  C   UNK     0      28.277   3.984  63.509  0.00  0.00     0.165 C 
HETATM   12  O   UNK     0      29.479   3.834  63.651  0.00  0.00    -0.647 OA
BRANCH  11  13
HETATM   13  O   UNK     0      27.418   3.016  63.115  0.00  0.00    -0.773 OA
HETATM   14  H   UNK     0      27.868   2.153  62.993  0.00  0.00     0.167 HD
ENDBRANCH  11  13
ENDBRANCH  10  11
ENDBRANCH   5   9
BRANCH   8  15
HETATM   15  O   UNK     0      23.881   9.961  66.120  0.00  0.00    -0.358 OA
HETATM   16  H   UNK     0      24.378  10.758  65.868  0.00  0.00     0.217 HD
ENDBRANCH   8  15
ENDBRANCH   1   3
TORSDOF 5
ENDMDL
MODEL 3
REMARK VINA RESULT:      -5.6     16.717     18.201
REMARK  5 active torsions:
REMARK  status: ('A' for Active; 'I' for Inactive)
REMARK    1  A    between atoms: O_1  and  C_8 
REMARK    2  A    between atoms: O_2  and  C_9 
REMARK    3  A    between atoms: O_3  and  C_13 
REMARK    4  A    between atoms: C_5  and  C_11 
REMARK    5  A    between atoms: C_12  and  C_13 
ROOT
HETATM    1  O   UNK     0      41.627 -19.080  34.277  0.00  0.00    -0.358 OA
HETATM    2  H   UNK     0      42.257 -19.082  35.018  0.00  0.00     0.217 HD
ENDROOT
BRANCH   1   3
HETATM    3  C   UNK     0      41.631 -17.841  33.713  0.00  0.00     0.099 A 
HETATM    4  C   UNK     0      40.646 -17.506  32.784  0.00  0.00     0.050 A 
HETATM    5  C   UNK     0      40.639 -16.238  32.200  0.00  0.00    -0.033 A 
HETATM    6  C   UNK     0      41.617 -15.306  32.547  0.00  0.00     0.014 A 
HETATM    7  C   UNK     0      42.602 -15.641  33.476  0.00  0.00     0.040 A 
HETATM    8  C   UNK     0      42.609 -16.908  34.059  0.00  0.00     0.098 A 
BRANCH   5   9
HETATM    9  C   UNK     0      39.613 -15.890  31.231  0.00  0.00     0.018 C 
HETATM   10  C   UNK     0      39.890 -15.318  30.062  0.00  0.00     0.082 C 
BRANCH  10  11
HETATM   11  C   UNK     0      38.771 -14.989  29.155  0.00  0.00     0.165 C 
HETATM   12  O   UNK     0      38.863 -14.606  28.001  0.00  0.00    -0.647 OA
BRANCH  11  13
HETATM   13  O   UNK     0      37.606 -15.181  29.816  0.00  0.00    -0.773 OA
HETATM   14  H   UNK     0      36.879 -15.444  29.211  0.00  0.00     0.167 HD
ENDBRANCH  11  13
ENDBRANCH  10  11
ENDBRANCH   5   9
BRANCH   8  15
HETATM   15  O   UNK     0      43.575 -17.223  34.966  0.00  0.00    -0.358 OA
HETATM   16  H   UNK     0      43.377 -16.778  35.808  0.00  0.00     0.217 HD
ENDBRANCH   8  15
ENDBRANCH   1   3
TORSDOF 5
ENDMDL
MODEL 4
REMARK VINA RESULT:      -5.3     18.194     20.763
REMARK  5 active torsions:
REMARK  status: ('A' for Active; 'I' for Inactive)
REMARK    1  A    between atoms: O_1  and  C_8 
REMARK    2  A    between atoms: O_2  and  C_9 
REMARK    3  A    between atoms: O_3  and  C_13 
REMARK    4  A    between atoms: C_5  and  C_11 
REMARK    5  A    between atoms: C_12  and  C_13 
ROOT
HETATM    1  O   UNK     0      41.271 -19.495  34.765  0.00  0.00    -0.358 OA
HETATM    2  H   UNK     0      41.055 -18.779  35.388  0.00  0.00     0.217 HD
ENDROOT
BRANCH   1   3
HETATM    3  C   UNK     0      42.620 -19.674  34.767  0.00  0.00     0.099 A 
HETATM    4  C   UNK     0      43.142 -20.967  34.802  0.00  0.00     0.050 A 
HETATM    5  C   UNK     0      44.524 -21.163  34.803  0.00  0.00    -0.033 A 
HETATM    6  C   UNK     0      45.383 -20.064  34.768  0.00  0.00     0.014 A 
HETATM    7  C   UNK     0      44.861 -18.771  34.732  0.00  0.00     0.040 A 
HETATM    8  C   UNK     0      43.480 -18.576  34.733  0.00  0.00     0.098 A 
BRANCH   5   9
HETATM    9  C   UNK     0      45.067 -22.511  34.841  0.00  0.00     0.018 C 
HETATM   10  C   UNK     0      46.172 -22.824  35.511  0.00  0.00     0.082 C 
BRANCH  10  11
HETATM   11  C   UNK     0      46.650 -24.222  35.471  0.00  0.00     0.165 C 
HETATM   12  O   UNK     0      46.949 -24.913  36.430  0.00  0.00    -0.647 OA
BRANCH  11  13
HETATM   13  O   UNK     0      46.704 -24.625  34.180  0.00  0.00    -0.773 OA
HETATM   14  H   UNK     0      46.904 -23.881  33.572  0.00  0.00     0.167 HD
ENDBRANCH  11  13
ENDBRANCH  10  11
ENDBRANCH   5   9
BRANCH   8  15
HETATM   15  O   UNK     0      42.983 -17.309  34.697  0.00  0.00    -0.358 OA
HETATM   16  H   UNK     0      43.088 -16.952  33.798  0.00  0.00     0.217 HD
ENDBRANCH   8  15
ENDBRANCH   1   3
TORSDOF 5
ENDMDL
MODEL 5
REMARK VINA RESULT:      -5.3     22.972     23.839
REMARK  5 active torsions:
REMARK  status: ('A' for Active; 'I' for Inactive)
REMARK    1  A    between atoms: O_1  and  C_8 
REMARK    2  A    between atoms: O_2  and  C_9 
REMARK    3  A    between atoms: O_3  and  C_13 
REMARK    4  A    between atoms: C_5  and  C_11 
REMARK    5  A    between atoms: C_12  and  C_13 
ROOT
HETATM    1  O   UNK     0      32.866   7.174  52.484  0.00  0.00    -0.358 OA
HETATM    2  H   UNK     0      33.705   7.643  52.337  0.00  0.00     0.217 HD
ENDROOT
BRANCH   1   3
HETATM    3  C   UNK     0      33.137   5.848  52.633  0.00  0.00     0.099 A 
HETATM    4  C   UNK     0      32.407   4.911  51.901  0.00  0.00     0.050 A 
HETATM    5  C   UNK     0      32.676   3.549  52.045  0.00  0.00    -0.033 A 
HETATM    6  C   UNK     0      33.676   3.125  52.920  0.00  0.00     0.014 A 
HETATM    7  C   UNK     0      34.406   4.062  53.652  0.00  0.00     0.040 A 
HETATM    8  C   UNK     0      34.136   5.423  53.508  0.00  0.00     0.098 A 
BRANCH   5   9
HETATM    9  C   UNK     0      31.914   2.573  51.283  0.00  0.00     0.018 C 
HETATM   10  C   UNK     0      31.699   1.332  51.712  0.00  0.00     0.082 C 
BRANCH  10  11
HETATM   11  C   UNK     0      30.926   0.412  50.852  0.00  0.00     0.165 C 
HETATM   12  O   UNK     0      31.180   0.114  49.698  0.00  0.00    -0.647 OA
BRANCH  11  13
HETATM   13  O   UNK     0      29.871  -0.057  51.559  0.00  0.00    -0.773 OA
HETATM   14  H   UNK     0      29.639  -0.976  51.305  0.00  0.00     0.167 HD
ENDBRANCH  11  13
ENDBRANCH  10  11
ENDBRANCH   5   9
BRANCH   8  15
HETATM   15  O   UNK     0      34.857   6.328  54.227  0.00  0.00    -0.358 OA
HETATM   16  H   UNK     0      34.353   6.577  55.020  0.00  0.00     0.217 HD
ENDBRANCH   8  15
ENDBRANCH   1   3
TORSDOF 5
ENDMDL
MODEL 6
REMARK VINA RESULT:      -5.1     17.735     19.560
REMARK  5 active torsions:
REMARK  status: ('A' for Active; 'I' for Inactive)
REMARK    1  A    between atoms: O_1  and  C_8 
REMARK    2  A    between atoms: O_2  and  C_9 
REMARK    3  A    between atoms: O_3  and  C_13 
REMARK    4  A    between atoms: C_5  and  C_11 
REMARK    5  A    between atoms: C_12  and  C_13 
ROOT
HETATM    1  O   UNK     0      37.390 -18.515  29.898  0.00  0.00    -0.358 OA
HETATM    2  H   UNK     0      37.094 -18.694  28.989  0.00  0.00     0.217 HD
ENDROOT
BRANCH   1   3
HETATM    3  C   UNK     0      37.963 -17.281  29.929  0.00  0.00     0.099 A 
HETATM    4  C   UNK     0      39.009 -17.030  30.817  0.00  0.00     0.050 A 
HETATM    5  C   UNK     0      39.604 -15.769  30.857  0.00  0.00    -0.033 A 
HETATM    6  C   UNK     0      39.154 -14.759  30.007  0.00  0.00     0.014 A 
HETATM    7  C   UNK     0      38.108 -15.009  29.118  0.00  0.00     0.040 A 
HETATM    8  C   UNK     0      37.513 -16.270  29.080  0.00  0.00     0.098 A 
BRANCH   5   9
HETATM    9  C   UNK     0      40.693 -15.508  31.784  0.00  0.00     0.018 C 
HETATM   10  C   UNK     0      41.640 -16.403  32.054  0.00  0.00     0.082 C 
BRANCH  10  11
HETATM   11  C   UNK     0      42.694 -16.044  33.026  0.00  0.00     0.165 C 
HETATM   12  O   UNK     0      43.055 -14.917  33.320  0.00  0.00    -0.647 OA
BRANCH  11  13
HETATM   13  O   UNK     0      43.207 -17.182  33.549  0.00  0.00    -0.773 OA
HETATM   14  H   UNK     0      42.930 -17.976  33.042  0.00  0.00     0.167 HD
ENDBRANCH  11  13
ENDBRANCH  10  11
ENDBRANCH   5   9
BRANCH   8  15
HETATM   15  O   UNK     0      36.494 -16.503  28.207  0.00  0.00    -0.358 OA
HETATM   16  H   UNK     0      36.861 -16.841  27.373  0.00  0.00     0.217 HD
ENDBRANCH   8  15
ENDBRANCH   1   3
TORSDOF 5
ENDMDL
MODEL 7
REMARK VINA RESULT:      -4.9     22.470     23.292
REMARK  5 active torsions:
REMARK  status: ('A' for Active; 'I' for Inactive)
REMARK    1  A    between atoms: O_1  and  C_8 
REMARK    2  A    between atoms: O_2  and  C_9 
REMARK    3  A    between atoms: O_3  and  C_13 
REMARK    4  A    between atoms: C_5  and  C_11 
REMARK    5  A    between atoms: C_12  and  C_13 
ROOT
HETATM    1  O   UNK     0      41.970   2.632  54.751  0.00  0.00    -0.358 OA
HETATM    2  H   UNK     0      42.475   1.825  54.554  0.00  0.00     0.217 HD
ENDROOT
BRANCH   1   3
HETATM    3  C   UNK     0      41.860   2.749  56.104  0.00  0.00     0.099 A 
HETATM    4  C   UNK     0      40.895   3.601  56.643  0.00  0.00     0.050 A 
HETATM    5  C   UNK     0      40.772   3.728  58.027  0.00  0.00    -0.033 A 
HETATM    6  C   UNK     0      41.614   3.003  58.871  0.00  0.00     0.014 A 
HETATM    7  C   UNK     0      42.578   2.152  58.332  0.00  0.00     0.040 A 
HETATM    8  C   UNK     0      42.701   2.025  56.948  0.00  0.00     0.098 A 
BRANCH   5   9
HETATM    9  C   UNK     0      39.768   4.616  58.589  0.00  0.00     0.018 C 
HETATM   10  C   UNK     0      39.841   5.096  59.827  0.00  0.00     0.082 C 
BRANCH  10  11
HETATM   11  C   UNK     0      38.757   5.979  60.308  0.00  0.00     0.165 C 
HETATM   12  O   UNK     0      38.073   6.723  59.626  0.00  0.00    -0.647 OA
BRANCH  11  13
HETATM   13  O   UNK     0      38.639   5.829  61.648  0.00  0.00    -0.773 OA
HETATM   14  H   UNK     0      37.702   5.842  61.938  0.00  0.00     0.167 HD
ENDBRANCH  11  13
ENDBRANCH  10  11
ENDBRANCH   5   9
BRANCH   8  15
HETATM   15  O   UNK     0      43.646   1.190  56.434  0.00  0.00    -0.358 OA
HETATM   16  H   UNK     0      43.738   0.417  57.017  0.00  0.00     0.217 HD
ENDBRANCH   8  15
ENDBRANCH   1   3
TORSDOF 5
ENDMDL
MODEL 8
REMARK VINA RESULT:      -4.8     23.374     24.263
REMARK  5 active torsions:
REMARK  status: ('A' for Active; 'I' for Inactive)
REMARK    1  A    between atoms: O_1  and  C_8 
REMARK    2  A    between atoms: O_2  and  C_9 
REMARK    3  A    between atoms: O_3  and  C_13 
REMARK    4  A    between atoms: C_5  and  C_11 
REMARK    5  A    between atoms: C_12  and  C_13 
ROOT
HETATM    1  O   UNK     0      35.272   7.835  57.530  0.00  0.00    -0.358 OA
HETATM    2  H   UNK     0      35.427   8.541  56.881  0.00  0.00     0.217 HD
ENDROOT
BRANCH   1   3
HETATM    3  C   UNK     0      36.082   6.784  57.224  0.00  0.00     0.099 A 
HETATM    4  C   UNK     0      35.685   5.872  56.246  0.00  0.00     0.050 A 
HETATM    5  C   UNK     0      36.507   4.792  55.923  0.00  0.00    -0.033 A 
HETATM    6  C   UNK     0      37.727   4.625  56.579  0.00  0.00     0.014 A 
HETATM    7  C   UNK     0      38.124   5.537  57.557  0.00  0.00     0.040 A 
HETATM    8  C   UNK     0      37.301   6.616  57.880  0.00  0.00     0.098 A 
BRANCH   5   9
HETATM    9  C   UNK     0      36.092   3.842  54.904  0.00  0.00     0.018 C 
HETATM   10  C   UNK     0      34.912   3.909  54.294  0.00  0.00     0.082 C 
BRANCH  10  11
HETATM   11  C   UNK     0      34.580   2.882  53.284  0.00  0.00     0.165 C 
HETATM   12  O   UNK     0      33.478   2.660  52.812  0.00  0.00    -0.647 OA
BRANCH  11  13
HETATM   13  O   UNK     0      35.711   2.215  52.957  0.00  0.00    -0.773 OA
HETATM   14  H   UNK     0      36.433   2.379  53.600  0.00  0.00     0.167 HD
ENDBRANCH  11  13
ENDBRANCH  10  11
ENDBRANCH   5   9
BRANCH   8  15
HETATM   15  O   UNK     0      37.701   7.500  58.836  0.00  0.00    -0.358 OA
HETATM   16  H   UNK     0      38.657   7.398  58.982  0.00  0.00     0.217 HD
ENDBRANCH   8  15
ENDBRANCH   1   3
TORSDOF 5
ENDMDL
MODEL 9
REMARK VINA RESULT:      -4.8     27.385     29.275
REMARK  5 active torsions:
REMARK  status: ('A' for Active; 'I' for Inactive)
REMARK    1  A    between atoms: O_1  and  C_8 
REMARK    2  A    between atoms: O_2  and  C_9 
REMARK    3  A    between atoms: O_3  and  C_13 
REMARK    4  A    between atoms: C_5  and  C_11 
REMARK    5  A    between atoms: C_12  and  C_13 
ROOT
HETATM    1  O   UNK     0      29.109  19.031  48.683  0.00  0.00    -0.358 OA
HETATM    2  H   UNK     0      28.432  19.680  48.428  0.00  0.00     0.217 HD
ENDROOT
BRANCH   1   3
HETATM    3  C   UNK     0      29.709  18.569  47.551  0.00  0.00     0.099 A 
HETATM    4  C   UNK     0      30.965  19.056  47.190  0.00  0.00     0.050 A 
HETATM    5  C   UNK     0      31.590  18.589  46.033  0.00  0.00    -0.033 A 
HETATM    6  C   UNK     0      30.957  17.634  45.237  0.00  0.00     0.014 A 
HETATM    7  C   UNK     0      29.700  17.147  45.598  0.00  0.00     0.040 A 
HETATM    8  C   UNK     0      29.077  17.615  46.754  0.00  0.00     0.098 A 
BRANCH   5   9
HETATM    9  C   UNK     0      32.899  19.098  45.658  0.00  0.00     0.018 C 
HETATM   10  C   UNK     0      33.390  18.985  44.427  0.00  0.00     0.082 C 
BRANCH  10  11
HETATM   11  C   UNK     0      34.740  19.521  44.153  0.00  0.00     0.165 C 
HETATM   12  O   UNK     0      35.753  19.294  44.792  0.00  0.00    -0.647 OA
BRANCH  11  13
HETATM   13  O   UNK     0      34.676  20.320  43.062  0.00  0.00    -0.773 OA
HETATM   14  H   UNK     0      35.274  21.094  43.138  0.00  0.00     0.167 HD
ENDBRANCH  11  13
ENDBRANCH  10  11
ENDBRANCH   5   9
BRANCH   8  15
HETATM   15  O   UNK     0      27.850  17.131  47.096  0.00  0.00    -0.358 OA
HETATM   16  H   UNK     0      27.374  17.806  47.608  0.00  0.00     0.217 HD
ENDBRANCH   8  15
ENDBRANCH   1   3
TORSDOF 5
ENDMDL
