MODEL 1
REMARK VINA RESULT:      -7.9      0.000      0.000
REMARK  5 active torsions:
REMARK  status: ('A' for Active; 'I' for Inactive)
REMARK    1  A    between atoms: O_2  and  C_11 
REMARK    2  A    between atoms: O_3  and  C_13 
REMARK    3  A    between atoms: O_5  and  C_15 
REMARK    4  A    between atoms: O_6  and  C_21 
REMARK    5  A    between atoms: C_9  and  C_12 
ROOT
HETATM    1  O   UNK     0      83.520  52.747  57.699  0.00  0.00    -0.306 OA
HETATM    2  O   UNK     0      84.184  48.964  56.336  0.00  0.00    -0.284 OA
HETATM    3  C   UNK     0      84.369  51.284  55.957  0.00  0.00     0.084 A 
HETATM    4  C   UNK     0      84.113  52.550  56.479  0.00  0.00     0.096 A 
HETATM    5  C   UNK     0      83.172  51.636  58.451  0.00  0.00     0.123 A 
HETATM    6  C   UNK     0      83.990  50.101  56.744  0.00  0.00     0.223 A 
HETATM    7  C   UNK     0      83.355  50.361  58.059  0.00  0.00     0.152 A 
HETATM    8  C   UNK     0      84.976  51.146  54.706  0.00  0.00     0.085 A 
HETATM    9  C   UNK     0      84.462  53.688  55.750  0.00  0.00     0.075 A 
HETATM   10  C   UNK     0      85.067  53.555  54.502  0.00  0.00     0.071 A 
HETATM   11  C   UNK     0      85.324  52.286  53.980  0.00  0.00     0.074 A 
ENDROOT
BRANCH   5  12
HETATM   12  C   UNK     0      82.544  51.986  59.737  0.00  0.00     0.001 A 
HETATM   13  C   UNK     0      81.169  52.209  59.805  0.00  0.00     0.017 A 
HETATM   14  C   UNK     0      80.575  52.539  61.023  0.00  0.00     0.037 A 
HETATM   15  C   UNK     0      81.356  52.648  62.173  0.00  0.00     0.065 A 
HETATM   16  C   UNK     0      82.732  52.425  62.106  0.00  0.00     0.037 A 
HETATM   17  C   UNK     0      83.326  52.094  60.888  0.00  0.00     0.017 A 
BRANCH  15  18
HETATM   18  O   UNK     0      80.776  52.969  63.361  0.00  0.00    -0.361 OA
HETATM   19  H   UNK     0      81.472  53.078  64.032  0.00  0.00     0.217 HD
ENDBRANCH  15  18
ENDBRANCH   5  12
BRANCH   7  20
HETATM   20  O   UNK     0      82.967  49.277  58.818  0.00  0.00    -0.355 OA
HETATM   21  H   UNK     0      83.488  49.245  59.636  0.00  0.00     0.218 HD
ENDBRANCH   7  20
BRANCH   8  22
HETATM   22  O   UNK     0      85.247  49.932  54.151  0.00  0.00    -0.360 OA
HETATM   23  H   UNK     0      84.823  49.852  53.283  0.00  0.00     0.217 HD
ENDBRANCH   8  22
BRANCH  10  24
HETATM   24  O   UNK     0      85.409  54.663  53.788  0.00  0.00    -0.361 OA
HETATM   25  H   UNK     0      84.754  54.799  53.083  0.00  0.00     0.217 HD
ENDBRANCH  10  24
TORSDOF 5
ENDMDL
MODEL 2
REMARK VINA RESULT:      -7.8      3.581      8.427
REMARK  5 active torsions:
REMARK  status: ('A' for Active; 'I' for Inactive)
REMARK    1  A    between atoms: O_2  and  C_11 
REMARK    2  A    between atoms: O_3  and  C_13 
REMARK    3  A    between atoms: O_5  and  C_15 
REMARK    4  A    between atoms: O_6  and  C_21 
REMARK    5  A    between atoms: C_9  and  C_12 
ROOT
HETATM    1  O   UNK     0      83.960  51.849  52.749  0.00  0.00    -0.306 OA
HETATM    2  O   UNK     0      87.061  52.446  55.324  0.00  0.00    -0.284 OA
HETATM    3  C   UNK     0      84.866  51.651  54.992  0.00  0.00     0.084 A 
HETATM    4  C   UNK     0      83.843  51.476  54.062  0.00  0.00     0.096 A 
HETATM    5  C   UNK     0      85.153  52.413  52.325  0.00  0.00     0.123 A 
HETATM    6  C   UNK     0      86.130  52.262  54.552  0.00  0.00     0.223 A 
HETATM    7  C   UNK     0      86.212  52.645  53.122  0.00  0.00     0.152 A 
HETATM    8  C   UNK     0      84.688  51.253  56.320  0.00  0.00     0.085 A 
HETATM    9  C   UNK     0      82.634  50.901  54.456  0.00  0.00     0.075 A 
HETATM   10  C   UNK     0      82.453  50.502  55.779  0.00  0.00     0.071 A 
HETATM   11  C   UNK     0      83.478  50.677  56.710  0.00  0.00     0.074 A 
ENDROOT
BRANCH   5  12
HETATM   12  C   UNK     0      85.146  52.767  50.895  0.00  0.00     0.001 A 
HETATM   13  C   UNK     0      84.451  53.894  50.459  0.00  0.00     0.017 A 
HETATM   14  C   UNK     0      84.445  54.230  49.104  0.00  0.00     0.037 A 
HETATM   15  C   UNK     0      85.133  53.438  48.187  0.00  0.00     0.065 A 
HETATM   16  C   UNK     0      85.829  52.309  48.623  0.00  0.00     0.037 A 
HETATM   17  C   UNK     0      85.835  51.974  49.977  0.00  0.00     0.017 A 
BRANCH  15  18
HETATM   18  O   UNK     0      85.128  53.766  46.866  0.00  0.00    -0.361 OA
HETATM   19  H   UNK     0      85.942  54.257  46.660  0.00  0.00     0.217 HD
ENDBRANCH  15  18
ENDBRANCH   5  12
BRANCH   7  20
HETATM   20  O   UNK     0      87.374  53.238  52.676  0.00  0.00    -0.355 OA
HETATM   21  H   UNK     0      87.779  52.691  51.984  0.00  0.00     0.218 HD
ENDBRANCH   7  20
BRANCH   8  22
HETATM   22  O   UNK     0      85.656  51.403  57.267  0.00  0.00    -0.360 OA
HETATM   23  H   UNK     0      86.337  52.022  56.963  0.00  0.00     0.217 HD
ENDBRANCH   8  22
BRANCH  10  24
HETATM   24  O   UNK     0      81.274  49.941  56.166  0.00  0.00    -0.361 OA
HETATM   25  H   UNK     0      80.545  50.531  55.911  0.00  0.00     0.217 HD
ENDBRANCH  10  24
TORSDOF 5
ENDMDL
MODEL 3
REMARK VINA RESULT:      -7.8     15.025     15.752
REMARK  5 active torsions:
REMARK  status: ('A' for Active; 'I' for Inactive)
REMARK    1  A    between atoms: O_2  and  C_11 
REMARK    2  A    between atoms: O_3  and  C_13 
REMARK    3  A    between atoms: O_5  and  C_15 
REMARK    4  A    between atoms: O_6  and  C_21 
REMARK    5  A    between atoms: C_9  and  C_12 
ROOT
HETATM    1  O   UNK     0      70.849  58.568  51.111  0.00  0.00    -0.306 OA
HETATM    2  O   UNK     0      69.319  55.107  49.599  0.00  0.00    -0.284 OA
HETATM    3  C   UNK     0      70.101  57.293  49.186  0.00  0.00     0.084 A 
HETATM    4  C   UNK     0      70.620  58.448  49.765  0.00  0.00     0.096 A 
HETATM    5  C   UNK     0      70.563  57.486  51.929  0.00  0.00     0.123 A 
HETATM    6  C   UNK     0      69.783  56.146  50.050  0.00  0.00     0.223 A 
HETATM    7  C   UNK     0      70.051  56.319  51.498  0.00  0.00     0.152 A 
HETATM    8  C   UNK     0      69.887  57.229  47.806  0.00  0.00     0.085 A 
HETATM    9  C   UNK     0      70.928  59.550  48.966  0.00  0.00     0.075 A 
HETATM   10  C   UNK     0      70.717  59.492  47.589  0.00  0.00     0.071 A 
HETATM   11  C   UNK     0      70.198  58.333  47.010  0.00  0.00     0.074 A 
ENDROOT
BRANCH   5  12
HETATM   12  C   UNK     0      70.854  57.746  53.349  0.00  0.00     0.001 A 
HETATM   13  C   UNK     0      69.884  57.492  54.318  0.00  0.00     0.017 A 
HETATM   14  C   UNK     0      70.160  57.737  55.664  0.00  0.00     0.037 A 
HETATM   15  C   UNK     0      71.405  58.238  56.040  0.00  0.00     0.065 A 
HETATM   16  C   UNK     0      72.377  58.493  55.070  0.00  0.00     0.037 A 
HETATM   17  C   UNK     0      72.101  58.247  53.725  0.00  0.00     0.017 A 
BRANCH  15  18
HETATM   18  O   UNK     0      71.675  58.477  57.352  0.00  0.00    -0.361 OA
HETATM   19  H   UNK     0      72.227  59.275  57.420  0.00  0.00     0.217 HD
ENDBRANCH  15  18
ENDBRANCH   5  12
BRANCH   7  20
HETATM   20  O   UNK     0      69.746  55.273  52.343  0.00  0.00    -0.355 OA
HETATM   21  H   UNK     0      68.871  55.412  52.738  0.00  0.00     0.218 HD
ENDBRANCH   7  20
BRANCH   8  22
HETATM   22  O   UNK     0      69.382  56.124  47.191  0.00  0.00    -0.360 OA
HETATM   23  H   UNK     0      68.987  55.523  47.842  0.00  0.00     0.217 HD
ENDBRANCH   8  22
BRANCH  10  24
HETATM   24  O   UNK     0      71.017  60.565  46.808  0.00  0.00    -0.361 OA
HETATM   25  H   UNK     0      71.897  60.435  46.418  0.00  0.00     0.217 HD
ENDBRANCH  10  24
TORSDOF 5
ENDMDL
MODEL 4
REMARK VINA RESULT:      -7.6      1.870      2.531
REMARK  5 active torsions:
REMARK  status: ('A' for Active; 'I' for Inactive)
REMARK    1  A    between atoms: O_2  and  C_11 
REMARK    2  A    between atoms: O_3  and  C_13 
REMARK    3  A    between atoms: O_5  and  C_15 
REMARK    4  A    between atoms: O_6  and  C_21 
REMARK    5  A    between atoms: C_9  and  C_12 
ROOT
HETATM    1  O   UNK     0      84.564  52.428  56.670  0.00  0.00    -0.306 OA
HETATM    2  O   UNK     0      82.369  50.863  53.615  0.00  0.00    -0.284 OA
HETATM    3  C   UNK     0      84.161  52.243  54.283  0.00  0.00     0.084 A 
HETATM    4  C   UNK     0      84.870  52.745  55.372  0.00  0.00     0.096 A 
HETATM    5  C   UNK     0      83.510  51.560  56.908  0.00  0.00     0.123 A 
HETATM    6  C   UNK     0      83.033  51.331  54.530  0.00  0.00     0.223 A 
HETATM    7  C   UNK     0      82.741  51.014  55.948  0.00  0.00     0.152 A 
HETATM    8  C   UNK     0      84.518  52.602  52.981  0.00  0.00     0.085 A 
HETATM    9  C   UNK     0      85.943  53.613  55.164  0.00  0.00     0.075 A 
HETATM   10  C   UNK     0      86.303  53.974  53.866  0.00  0.00     0.071 A 
HETATM   11  C   UNK     0      85.592  53.469  52.777  0.00  0.00     0.074 A 
ENDROOT
BRANCH   5  12
HETATM   12  C   UNK     0      83.288  51.305  58.342  0.00  0.00     0.001 A 
HETATM   13  C   UNK     0      84.228  50.579  59.075  0.00  0.00     0.017 A 
HETATM   14  C   UNK     0      84.018  50.339  60.433  0.00  0.00     0.037 A 
HETATM   15  C   UNK     0      82.869  50.822  61.057  0.00  0.00     0.065 A 
HETATM   16  C   UNK     0      81.929  51.548  60.324  0.00  0.00     0.037 A 
HETATM   17  C   UNK     0      82.139  51.789  58.967  0.00  0.00     0.017 A 
BRANCH  15  18
HETATM   18  O   UNK     0      82.665  50.588  62.382  0.00  0.00    -0.361 OA
HETATM   19  H   UNK     0      82.854  49.652  62.569  0.00  0.00     0.217 HD
ENDBRANCH  15  18
ENDBRANCH   5  12
BRANCH   7  20
HETATM   20  O   UNK     0      81.678  50.179  56.220  0.00  0.00    -0.355 OA
HETATM   21  H   UNK     0      81.066  50.167  55.467  0.00  0.00     0.218 HD
ENDBRANCH   7  20
BRANCH   8  22
HETATM   22  O   UNK     0      83.856  52.139  51.884  0.00  0.00    -0.360 OA
HETATM   23  H   UNK     0      83.919  51.173  51.831  0.00  0.00     0.217 HD
ENDBRANCH   8  22
BRANCH  10  24
HETATM   24  O   UNK     0      87.350  54.820  53.661  0.00  0.00    -0.361 OA
HETATM   25  H   UNK     0      87.503  55.335  54.471  0.00  0.00     0.217 HD
ENDBRANCH  10  24
TORSDOF 5
ENDMDL
MODEL 5
REMARK VINA RESULT:      -7.3     15.386     17.047
REMARK  5 active torsions:
REMARK  status: ('A' for Active; 'I' for Inactive)
REMARK    1  A    between atoms: O_2  and  C_11 
REMARK    2  A    between atoms: O_3  and  C_13 
REMARK    3  A    between atoms: O_5  and  C_15 
REMARK    4  A    between atoms: O_6  and  C_21 
REMARK    5  A    between atoms: C_9  and  C_12 
ROOT
HETATM    1  O   UNK     0      85.151  50.983  42.374  0.00  0.00    -0.306 OA
HETATM    2  O   UNK     0      85.311  54.408  40.174  0.00  0.00    -0.284 OA
HETATM    3  C   UNK     0      83.983  52.822  41.305  0.00  0.00     0.084 A 
HETATM    4  C   UNK     0      83.996  51.646  42.053  0.00  0.00     0.096 A 
HETATM    5  C   UNK     0      86.359  51.512  41.948  0.00  0.00     0.123 A 
HETATM    6  C   UNK     0      85.260  53.382  40.838  0.00  0.00     0.223 A 
HETATM    7  C   UNK     0      86.483  52.633  41.213  0.00  0.00     0.152 A 
HETATM    8  C   UNK     0      82.773  53.455  41.007  0.00  0.00     0.085 A 
HETATM    9  C   UNK     0      82.797  51.095  42.506  0.00  0.00     0.075 A 
HETATM   10  C   UNK     0      81.588  51.722  42.210  0.00  0.00     0.071 A 
HETATM   11  C   UNK     0      81.576  52.901  41.462  0.00  0.00     0.074 A 
ENDROOT
BRANCH   5  12
HETATM   12  C   UNK     0      87.519  50.703  42.360  0.00  0.00     0.001 A 
HETATM   13  C   UNK     0      87.777  50.492  43.714  0.00  0.00     0.017 A 
HETATM   14  C   UNK     0      88.875  49.724  44.104  0.00  0.00     0.037 A 
HETATM   15  C   UNK     0      89.716  49.169  43.140  0.00  0.00     0.065 A 
HETATM   16  C   UNK     0      89.458  49.380  41.785  0.00  0.00     0.037 A 
HETATM   17  C   UNK     0      88.360  50.147  41.395  0.00  0.00     0.017 A 
BRANCH  15  18
HETATM   18  O   UNK     0      90.786  48.420  43.520  0.00  0.00    -0.361 OA
HETATM   19  H   UNK     0      90.783  47.588  43.017  0.00  0.00     0.217 HD
ENDBRANCH  15  18
ENDBRANCH   5  12
BRANCH   7  20
HETATM   20  O   UNK     0      87.699  53.116  40.777  0.00  0.00    -0.355 OA
HETATM   21  H   UNK     0      87.564  53.920  40.251  0.00  0.00     0.218 HD
ENDBRANCH   7  20
BRANCH   8  22
HETATM   22  O   UNK     0      82.706  54.605  40.280  0.00  0.00    -0.360 OA
HETATM   23  H   UNK     0      83.214  55.309  40.709  0.00  0.00     0.217 HD
ENDBRANCH   8  22
BRANCH  10  24
HETATM   24  O   UNK     0      80.417  51.186  42.651  0.00  0.00    -0.361 OA
HETATM   25  H   UNK     0      80.471  51.057  43.613  0.00  0.00     0.217 HD
ENDBRANCH  10  24
TORSDOF 5
ENDMDL
MODEL 6
REMARK VINA RESULT:      -7.2     25.128     28.031
REMARK  5 active torsions:
REMARK  status: ('A' for Active; 'I' for Inactive)
REMARK    1  A    between atoms: O_2  and  C_11 
REMARK    2  A    between atoms: O_3  and  C_13 
REMARK    3  A    between atoms: O_5  and  C_15 
REMARK    4  A    between atoms: O_6  and  C_21 
REMARK    5  A    between atoms: C_9  and  C_12 
ROOT
HETATM    1  O   UNK     0      73.339  47.726  32.714  0.00  0.00    -0.306 OA
HETATM    2  O   UNK     0      74.165  44.348  30.590  0.00  0.00    -0.284 OA
HETATM    3  C   UNK     0      72.532  45.772  31.521  0.00  0.00     0.084 A 
HETATM    4  C   UNK     0      72.317  46.937  32.253  0.00  0.00     0.096 A 
HETATM    5  C   UNK     0      74.643  47.354  32.426  0.00  0.00     0.123 A 
HETATM    6  C   UNK     0      73.914  45.364  31.224  0.00  0.00     0.223 A 
HETATM    7  C   UNK     0      74.986  46.249  31.738  0.00  0.00     0.152 A 
HETATM    8  C   UNK     0      71.450  45.007  31.078  0.00  0.00     0.085 A 
HETATM    9  C   UNK     0      71.016  47.344  32.550  0.00  0.00     0.075 A 
HETATM   10  C   UNK     0      69.933  46.584  32.110  0.00  0.00     0.071 A 
HETATM   11  C   UNK     0      70.150  45.417  31.375  0.00  0.00     0.074 A 
ENDROOT
BRANCH   5  12
HETATM   12  C   UNK     0      75.642  48.285  32.978  0.00  0.00     0.001 A 
HETATM   13  C   UNK     0      75.953  48.249  34.337  0.00  0.00     0.017 A 
HETATM   14  C   UNK     0      76.901  49.130  34.860  0.00  0.00     0.037 A 
HETATM   15  C   UNK     0      77.535  50.048  34.024  0.00  0.00     0.065 A 
HETATM   16  C   UNK     0      77.224  50.085  32.664  0.00  0.00     0.037 A 
HETATM   17  C   UNK     0      76.277  49.203  32.141  0.00  0.00     0.017 A 
BRANCH  15  18
HETATM   18  O   UNK     0      78.458  50.907  34.533  0.00  0.00    -0.361 OA
HETATM   19  H   UNK     0      79.023  50.427  35.162  0.00  0.00     0.217 HD
ENDBRANCH  15  18
ENDBRANCH   5  12
BRANCH   7  20
HETATM   20  O   UNK     0      76.295  45.889  31.497  0.00  0.00    -0.355 OA
HETATM   21  H   UNK     0      76.584  45.236  32.155  0.00  0.00     0.218 HD
ENDBRANCH   7  20
BRANCH   8  22
HETATM   22  O   UNK     0      71.606  43.860  30.360  0.00  0.00    -0.360 OA
HETATM   23  H   UNK     0      72.506  43.514  30.462  0.00  0.00     0.217 HD
ENDBRANCH   8  22
BRANCH  10  24
HETATM   24  O   UNK     0      68.662  46.979  32.397  0.00  0.00    -0.361 OA
HETATM   25  H   UNK     0      68.623  47.263  33.326  0.00  0.00     0.217 HD
ENDBRANCH  10  24
TORSDOF 5
ENDMDL
MODEL 7
REMARK VINA RESULT:      -7.1     12.013     16.000
REMARK  5 active torsions:
REMARK  status: ('A' for Active; 'I' for Inactive)
REMARK    1  A    between atoms: O_2  and  C_11 
REMARK    2  A    between atoms: O_3  and  C_13 
REMARK    3  A    between atoms: O_5  and  C_15 
REMARK    4  A    between atoms: O_6  and  C_21 
REMARK    5  A    between atoms: C_9  and  C_12 
ROOT
HETATM    1  O   UNK     0      86.893  53.126  44.431  0.00  0.00    -0.306 OA
HETATM    2  O   UNK     0      84.998  55.416  41.644  0.00  0.00    -0.284 OA
HETATM    3  C   UNK     0      85.371  54.947  43.925  0.00  0.00     0.084 A 
HETATM    4  C   UNK     0      86.047  54.128  44.827  0.00  0.00     0.096 A 
HETATM    5  C   UNK     0      87.094  52.927  43.074  0.00  0.00     0.123 A 
HETATM    6  C   UNK     0      85.569  54.733  42.483  0.00  0.00     0.223 A 
HETATM    7  C   UNK     0      86.496  53.640  42.102  0.00  0.00     0.152 A 
HETATM    8  C   UNK     0      84.519  55.954  44.387  0.00  0.00     0.085 A 
HETATM    9  C   UNK     0      85.873  54.311  46.199  0.00  0.00     0.075 A 
HETATM   10  C   UNK     0      85.025  55.314  46.665  0.00  0.00     0.071 A 
HETATM   11  C   UNK     0      84.349  56.135  45.760  0.00  0.00     0.074 A 
ENDROOT
BRANCH   5  12
HETATM   12  C   UNK     0      88.023  51.820  42.787  0.00  0.00     0.001 A 
HETATM   13  C   UNK     0      89.018  51.978  41.822  0.00  0.00     0.017 A 
HETATM   14  C   UNK     0      89.899  50.931  41.551  0.00  0.00     0.037 A 
HETATM   15  C   UNK     0      89.785  49.726  42.243  0.00  0.00     0.065 A 
HETATM   16  C   UNK     0      88.789  49.568  43.209  0.00  0.00     0.037 A 
HETATM   17  C   UNK     0      87.909  50.615  43.480  0.00  0.00     0.017 A 
BRANCH  15  18
HETATM   18  O   UNK     0      90.644  48.705  41.979  0.00  0.00    -0.361 OA
HETATM   19  H   UNK     0      90.417  47.947  42.545  0.00  0.00     0.217 HD
ENDBRANCH  15  18
ENDBRANCH   5  12
BRANCH   7  20
HETATM   20  O   UNK     0      86.692  53.395  40.760  0.00  0.00    -0.355 OA
HETATM   21  H   UNK     0      87.600  53.633  40.510  0.00  0.00     0.218 HD
ENDBRANCH   7  20
BRANCH   8  22
HETATM   22  O   UNK     0      83.835  56.780  43.547  0.00  0.00    -0.360 OA
HETATM   23  H   UNK     0      83.441  57.516  44.040  0.00  0.00     0.217 HD
ENDBRANCH   8  22
BRANCH  10  24
HETATM   24  O   UNK     0      84.854  55.495  48.004  0.00  0.00    -0.361 OA
HETATM   25  H   UNK     0      85.419  54.865  48.482  0.00  0.00     0.217 HD
ENDBRANCH  10  24
TORSDOF 5
ENDMDL
MODEL 8
REMARK VINA RESULT:      -7.0      9.560     13.406
REMARK  5 active torsions:
REMARK  status: ('A' for Active; 'I' for Inactive)
REMARK    1  A    between atoms: O_2  and  C_11 
REMARK    2  A    between atoms: O_3  and  C_13 
REMARK    3  A    between atoms: O_5  and  C_15 
REMARK    4  A    between atoms: O_6  and  C_21 
REMARK    5  A    between atoms: C_9  and  C_12 
ROOT
HETATM    1  O   UNK     0      84.392  52.815  45.028  0.00  0.00    -0.306 OA
HETATM    2  O   UNK     0      86.083  56.090  43.291  0.00  0.00    -0.284 OA
HETATM    3  C   UNK     0      84.696  54.198  43.056  0.00  0.00     0.084 A 
HETATM    4  C   UNK     0      84.150  53.094  43.708  0.00  0.00     0.096 A 
HETATM    5  C   UNK     0      85.206  53.676  45.747  0.00  0.00     0.123 A 
HETATM    6  C   UNK     0      85.571  55.108  43.810  0.00  0.00     0.223 A 
HETATM    7  C   UNK     0      85.801  54.769  45.235  0.00  0.00     0.152 A 
HETATM    8  C   UNK     0      84.414  54.432  41.707  0.00  0.00     0.085 A 
HETATM    9  C   UNK     0      83.318  52.215  43.013  0.00  0.00     0.075 A 
HETATM   10  C   UNK     0      83.035  52.445  41.668  0.00  0.00     0.071 A 
HETATM   11  C   UNK     0      83.581  53.551  41.016  0.00  0.00     0.074 A 
ENDROOT
BRANCH   5  12
HETATM   12  C   UNK     0      85.384  53.261  47.150  0.00  0.00     0.001 A 
HETATM   13  C   UNK     0      84.852  54.037  48.180  0.00  0.00     0.017 A 
HETATM   14  C   UNK     0      85.019  53.643  49.508  0.00  0.00     0.037 A 
HETATM   15  C   UNK     0      85.720  52.475  49.806  0.00  0.00     0.065 A 
HETATM   16  C   UNK     0      86.253  51.699  48.775  0.00  0.00     0.037 A 
HETATM   17  C   UNK     0      86.085  52.092  47.448  0.00  0.00     0.017 A 
BRANCH  15  18
HETATM   18  O   UNK     0      85.884  52.091  51.100  0.00  0.00    -0.361 OA
HETATM   19  H   UNK     0      86.138  52.866  51.629  0.00  0.00     0.217 HD
ENDBRANCH  15  18
ENDBRANCH   5  12
BRANCH   7  20
HETATM   20  O   UNK     0      86.632  55.588  45.971  0.00  0.00    -0.355 OA
HETATM   21  H   UNK     0      87.020  56.266  45.395  0.00  0.00     0.218 HD
ENDBRANCH   7  20
BRANCH   8  22
HETATM   22  O   UNK     0      84.922  55.495  41.024  0.00  0.00    -0.360 OA
HETATM   23  H   UNK     0      85.429  55.194  40.255  0.00  0.00     0.217 HD
ENDBRANCH   8  22
BRANCH  10  24
HETATM   24  O   UNK     0      82.223  51.588  40.987  0.00  0.00    -0.361 OA
HETATM   25  H   UNK     0      81.507  51.297  41.576  0.00  0.00     0.217 HD
ENDBRANCH  10  24
TORSDOF 5
ENDMDL
MODEL 9
REMARK VINA RESULT:      -7.0      1.271      3.122
REMARK  5 active torsions:
REMARK  status: ('A' for Active; 'I' for Inactive)
REMARK    1  A    between atoms: O_2  and  C_11 
REMARK    2  A    between atoms: O_3  and  C_13 
REMARK    3  A    between atoms: O_5  and  C_15 
REMARK    4  A    between atoms: O_6  and  C_21 
REMARK    5  A    between atoms: C_9  and  C_12 
ROOT
HETATM    1  O   UNK     0      83.093  50.966  57.903  0.00  0.00    -0.306 OA
HETATM    2  O   UNK     0      84.804  54.005  55.795  0.00  0.00    -0.284 OA
HETATM    3  C   UNK     0      84.216  51.723  55.888  0.00  0.00     0.084 A 
HETATM    4  C   UNK     0      83.620  50.728  56.660  0.00  0.00     0.096 A 
HETATM    5  C   UNK     0      83.146  52.256  58.407  0.00  0.00     0.123 A 
HETATM    6  C   UNK     0      84.287  53.091  56.423  0.00  0.00     0.223 A 
HETATM    7  C   UNK     0      83.702  53.302  57.769  0.00  0.00     0.152 A 
HETATM    8  C   UNK     0      84.737  51.421  54.627  0.00  0.00     0.085 A 
HETATM    9  C   UNK     0      83.542  49.422  56.175  0.00  0.00     0.075 A 
HETATM   10  C   UNK     0      84.061  49.116  54.917  0.00  0.00     0.071 A 
HETATM   11  C   UNK     0      84.657  50.114  54.145  0.00  0.00     0.074 A 
ENDROOT
BRANCH   5  12
HETATM   12  C   UNK     0      82.547  52.374  59.748  0.00  0.00     0.001 A 
HETATM   13  C   UNK     0      83.359  52.326  60.882  0.00  0.00     0.017 A 
HETATM   14  C   UNK     0      82.792  52.439  62.151  0.00  0.00     0.037 A 
HETATM   15  C   UNK     0      81.414  52.598  62.288  0.00  0.00     0.065 A 
HETATM   16  C   UNK     0      80.601  52.646  61.154  0.00  0.00     0.037 A 
HETATM   17  C   UNK     0      81.168  52.534  59.885  0.00  0.00     0.017 A 
BRANCH  15  18
HETATM   18  O   UNK     0      80.861  52.708  63.526  0.00  0.00    -0.361 OA
HETATM   19  H   UNK     0      80.881  51.837  63.959  0.00  0.00     0.217 HD
ENDBRANCH  15  18
ENDBRANCH   5  12
BRANCH   7  20
HETATM   20  O   UNK     0      83.767  54.567  58.313  0.00  0.00    -0.355 OA
HETATM   21  H   UNK     0      82.931  54.778  58.760  0.00  0.00     0.218 HD
ENDBRANCH   7  20
BRANCH   8  22
HETATM   22  O   UNK     0      85.331  52.356  53.834  0.00  0.00    -0.360 OA
HETATM   23  H   UNK     0      85.253  53.237  54.231  0.00  0.00     0.217 HD
ENDBRANCH   8  22
BRANCH  10  24
HETATM   24  O   UNK     0      83.986  47.842  54.441  0.00  0.00    -0.361 OA
HETATM   25  H   UNK     0      83.641  47.264  55.142  0.00  0.00     0.217 HD
ENDBRANCH  10  24
TORSDOF 5
ENDMDL
