MODEL 1
REMARK VINA RESULT:      -6.0      0.000      0.000
REMARK  5 active torsions:
REMARK  status: ('A' for Active; 'I' for Inactive)
REMARK    1  A    between atoms: O_1  and  C_8 
REMARK    2  A    between atoms: O_2  and  C_9 
REMARK    3  A    between atoms: O_3  and  C_13 
REMARK    4  A    between atoms: C_5  and  C_11 
REMARK    5  A    between atoms: C_12  and  C_13 
ROOT
HETATM    1  O   UNK     0      24.993 -18.593 -17.746  0.00  0.00    -0.358 OA
HETATM    2  H   UNK     0      24.042 -18.578 -17.951  0.00  0.00     0.217 HD
ENDROOT
BRANCH   1   3
HETATM    3  C   UNK     0      25.453 -19.860 -17.941  0.00  0.00     0.099 A 
HETATM    4  C   UNK     0      26.022 -20.202 -19.168  0.00  0.00     0.050 A 
HETATM    5  C   UNK     0      26.498 -21.497 -19.379  0.00  0.00    -0.033 A 
HETATM    6  C   UNK     0      26.406 -22.448 -18.363  0.00  0.00     0.014 A 
HETATM    7  C   UNK     0      25.837 -22.105 -17.137  0.00  0.00     0.040 A 
HETATM    8  C   UNK     0      25.360 -20.812 -16.926  0.00  0.00     0.098 A 
BRANCH   5   9
HETATM    9  C   UNK     0      27.091 -21.854 -20.658  0.00  0.00     0.018 C 
HETATM   10  C   UNK     0      27.569 -20.949 -21.508  0.00  0.00     0.082 C 
BRANCH  10  11
HETATM   11  C   UNK     0      28.136 -21.416 -22.791  0.00  0.00     0.165 C 
HETATM   12  O   UNK     0      28.406 -20.724 -23.758  0.00  0.00    -0.647 OA
BRANCH  11  13
HETATM   13  O   UNK     0      28.311 -22.756 -22.725  0.00  0.00    -0.773 OA
HETATM   14  H   UNK     0      29.183 -23.030 -23.082  0.00  0.00     0.167 HD
ENDBRANCH  11  13
ENDBRANCH  10  11
ENDBRANCH   5   9
BRANCH   8  15
HETATM   15  O   UNK     0      24.808 -20.489 -15.724  0.00  0.00    -0.358 OA
HETATM   16  H   UNK     0      24.860 -21.260 -15.133  0.00  0.00     0.217 HD
ENDBRANCH   8  15
ENDBRANCH   1   3
TORSDOF 5
ENDMDL
MODEL 2
REMARK VINA RESULT:      -6.0      2.022      2.771
REMARK  5 active torsions:
REMARK  status: ('A' for Active; 'I' for Inactive)
REMARK    1  A    between atoms: O_1  and  C_8 
REMARK    2  A    between atoms: O_2  and  C_9 
REMARK    3  A    between atoms: O_3  and  C_13 
REMARK    4  A    between atoms: C_5  and  C_11 
REMARK    5  A    between atoms: C_12  and  C_13 
ROOT
HETATM    1  O   UNK     0      26.685 -24.784 -18.006  0.00  0.00    -0.358 OA
HETATM    2  H   UNK     0      26.233 -24.876 -17.150  0.00  0.00     0.217 HD
ENDROOT
BRANCH   1   3
HETATM    3  C   UNK     0      26.873 -23.458 -18.252  0.00  0.00     0.099 A 
HETATM    4  C   UNK     0      27.269 -23.044 -19.524  0.00  0.00     0.050 A 
HETATM    5  C   UNK     0      27.464 -21.688 -19.787  0.00  0.00    -0.033 A 
HETATM    6  C   UNK     0      27.262 -20.746 -18.779  0.00  0.00     0.014 A 
HETATM    7  C   UNK     0      26.866 -21.160 -17.507  0.00  0.00     0.040 A 
HETATM    8  C   UNK     0      26.672 -22.516 -17.244  0.00  0.00     0.098 A 
BRANCH   5   9
HETATM    9  C   UNK     0      27.878 -21.258 -21.113  0.00  0.00     0.018 C 
HETATM   10  C   UNK     0      27.593 -20.054 -21.602  0.00  0.00     0.082 C 
BRANCH  10  11
HETATM   11  C   UNK     0      28.045 -19.722 -22.969  0.00  0.00     0.165 C 
HETATM   12  O   UNK     0      27.997 -18.626 -23.502  0.00  0.00    -0.647 OA
BRANCH  11  13
HETATM   13  O   UNK     0      28.532 -20.844 -23.549  0.00  0.00    -0.773 OA
HETATM   14  H   UNK     0      28.183 -21.657 -23.126  0.00  0.00     0.167 HD
ENDBRANCH  11  13
ENDBRANCH  10  11
ENDBRANCH   5   9
BRANCH   8  15
HETATM   15  O   UNK     0      26.284 -22.907 -15.998  0.00  0.00    -0.358 OA
HETATM   16  H   UNK     0      26.416 -23.866 -15.911  0.00  0.00     0.217 HD
ENDBRANCH   8  15
ENDBRANCH   1   3
TORSDOF 5
ENDMDL
MODEL 3
REMARK VINA RESULT:      -5.8      1.986      5.738
REMARK  5 active torsions:
REMARK  status: ('A' for Active; 'I' for Inactive)
REMARK    1  A    between atoms: O_1  and  C_8 
REMARK    2  A    between atoms: O_2  and  C_9 
REMARK    3  A    between atoms: O_3  and  C_13 
REMARK    4  A    between atoms: C_5  and  C_11 
REMARK    5  A    between atoms: C_12  and  C_13 
ROOT
HETATM    1  O   UNK     0      26.126 -20.466 -21.484  0.00  0.00    -0.358 OA
HETATM    2  H   UNK     0      25.828 -19.548 -21.371  0.00  0.00     0.217 HD
ENDROOT
BRANCH   1   3
HETATM    3  C   UNK     0      27.011 -20.755 -20.490  0.00  0.00     0.099 A 
HETATM    4  C   UNK     0      26.543 -20.963 -19.192  0.00  0.00     0.050 A 
HETATM    5  C   UNK     0      27.441 -21.260 -18.166  0.00  0.00    -0.033 A 
HETATM    6  C   UNK     0      28.806 -21.350 -18.438  0.00  0.00     0.014 A 
HETATM    7  C   UNK     0      29.273 -21.142 -19.736  0.00  0.00     0.040 A 
HETATM    8  C   UNK     0      28.376 -20.844 -20.761  0.00  0.00     0.098 A 
BRANCH   5   9
HETATM    9  C   UNK     0      26.952 -21.477 -16.814  0.00  0.00     0.018 C 
HETATM   10  C   UNK     0      26.044 -22.401 -16.514  0.00  0.00     0.082 C 
BRANCH  10  11
HETATM   11  C   UNK     0      25.602 -22.528 -15.110  0.00  0.00     0.165 C 
HETATM   12  O   UNK     0      25.860 -23.445 -14.349  0.00  0.00    -0.647 OA
BRANCH  11  13
HETATM   13  O   UNK     0      24.851 -21.447 -14.792  0.00  0.00    -0.773 OA
HETATM   14  H   UNK     0      25.248 -20.927 -14.061  0.00  0.00     0.167 HD
ENDBRANCH  11  13
ENDBRANCH  10  11
ENDBRANCH   5   9
BRANCH   8  15
HETATM   15  O   UNK     0      28.845 -20.644 -22.024  0.00  0.00    -0.358 OA
HETATM   16  H   UNK     0      28.716 -19.711 -22.266  0.00  0.00     0.217 HD
ENDBRANCH   8  15
ENDBRANCH   1   3
TORSDOF 5
ENDMDL
MODEL 4
REMARK VINA RESULT:      -5.7      3.322      5.085
REMARK  5 active torsions:
REMARK  status: ('A' for Active; 'I' for Inactive)
REMARK    1  A    between atoms: O_1  and  C_8 
REMARK    2  A    between atoms: O_2  and  C_9 
REMARK    3  A    between atoms: O_3  and  C_13 
REMARK    4  A    between atoms: C_5  and  C_11 
REMARK    5  A    between atoms: C_12  and  C_13 
ROOT
HETATM    1  O   UNK     0      25.656 -20.561 -21.102  0.00  0.00    -0.358 OA
HETATM    2  H   UNK     0      25.562 -19.614 -20.902  0.00  0.00     0.217 HD
ENDROOT
BRANCH   1   3
HETATM    3  C   UNK     0      26.586 -21.088 -20.259  0.00  0.00     0.099 A 
HETATM    4  C   UNK     0      26.333 -22.311 -19.636  0.00  0.00     0.050 A 
HETATM    5  C   UNK     0      27.279 -22.862 -18.771  0.00  0.00    -0.033 A 
HETATM    6  C   UNK     0      28.477 -22.189 -18.529  0.00  0.00     0.014 A 
HETATM    7  C   UNK     0      28.729 -20.967 -19.151  0.00  0.00     0.040 A 
HETATM    8  C   UNK     0      27.783 -20.417 -20.015  0.00  0.00     0.098 A 
BRANCH   5   9
HETATM    9  C   UNK     0      27.015 -24.136 -18.122  0.00  0.00     0.018 C 
HETATM   10  C   UNK     0      25.816 -24.710 -18.122  0.00  0.00     0.082 C 
BRANCH  10  11
HETATM   11  C   UNK     0      25.649 -25.999 -17.418  0.00  0.00     0.165 C 
HETATM   12  O   UNK     0      24.727 -26.309 -16.684  0.00  0.00    -0.647 OA
BRANCH  11  13
HETATM   13  O   UNK     0      26.700 -26.796 -17.720  0.00  0.00    -0.773 OA
HETATM   14  H   UNK     0      27.381 -26.324 -18.245  0.00  0.00     0.167 HD
ENDBRANCH  11  13
ENDBRANCH  10  11
ENDBRANCH   5   9
BRANCH   8  15
HETATM   15  O   UNK     0      28.042 -19.223 -20.618  0.00  0.00    -0.358 OA
HETATM   16  H   UNK     0      27.960 -19.329 -21.581  0.00  0.00     0.217 HD
ENDBRANCH   8  15
ENDBRANCH   1   3
TORSDOF 5
ENDMDL
MODEL 5
REMARK VINA RESULT:      -5.7      3.369      5.447
REMARK  5 active torsions:
REMARK  status: ('A' for Active; 'I' for Inactive)
REMARK    1  A    between atoms: O_1  and  C_8 
REMARK    2  A    between atoms: O_2  and  C_9 
REMARK    3  A    between atoms: O_3  and  C_13 
REMARK    4  A    between atoms: C_5  and  C_11 
REMARK    5  A    between atoms: C_12  and  C_13 
ROOT
HETATM    1  O   UNK     0      24.364 -26.374 -15.577  0.00  0.00    -0.358 OA
HETATM    2  H   UNK     0      25.140 -26.932 -15.753  0.00  0.00     0.217 HD
ENDROOT
BRANCH   1   3
HETATM    3  C   UNK     0      24.798 -25.131 -15.233  0.00  0.00     0.099 A 
HETATM    4  C   UNK     0      24.992 -24.170 -16.226  0.00  0.00     0.050 A 
HETATM    5  C   UNK     0      25.436 -22.893 -15.884  0.00  0.00    -0.033 A 
HETATM    6  C   UNK     0      25.686 -22.575 -14.549  0.00  0.00     0.014 A 
HETATM    7  C   UNK     0      25.492 -23.535 -13.556  0.00  0.00     0.040 A 
HETATM    8  C   UNK     0      25.049 -24.813 -13.898  0.00  0.00     0.098 A 
BRANCH   5   9
HETATM    9  C   UNK     0      25.638 -21.893 -16.920  0.00  0.00     0.018 C 
HETATM   10  C   UNK     0      25.369 -20.602 -16.739  0.00  0.00     0.082 C 
BRANCH  10  11
HETATM   11  C   UNK     0      25.595 -19.670 -17.863  0.00  0.00     0.165 C 
HETATM   12  O   UNK     0      24.878 -18.738 -18.186  0.00  0.00    -0.647 OA
BRANCH  11  13
HETATM   13  O   UNK     0      26.743 -20.017 -18.491  0.00  0.00    -0.773 OA
HETATM   14  H   UNK     0      26.609 -20.149 -19.454  0.00  0.00     0.167 HD
ENDBRANCH  11  13
ENDBRANCH  10  11
ENDBRANCH   5   9
BRANCH   8  15
HETATM   15  O   UNK     0      24.863 -25.741 -12.919  0.00  0.00    -0.358 OA
HETATM   16  H   UNK     0      25.243 -26.588 -13.208  0.00  0.00     0.217 HD
ENDBRANCH   8  15
ENDBRANCH   1   3
TORSDOF 5
ENDMDL
MODEL 6
REMARK VINA RESULT:      -5.6      2.554      6.180
REMARK  5 active torsions:
REMARK  status: ('A' for Active; 'I' for Inactive)
REMARK    1  A    between atoms: O_1  and  C_8 
REMARK    2  A    between atoms: O_2  and  C_9 
REMARK    3  A    between atoms: O_3  and  C_13 
REMARK    4  A    between atoms: C_5  and  C_11 
REMARK    5  A    between atoms: C_12  and  C_13 
ROOT
HETATM    1  O   UNK     0      26.336 -23.286 -20.634  0.00  0.00    -0.358 OA
HETATM    2  H   UNK     0      26.979 -22.875 -21.237  0.00  0.00     0.217 HD
ENDROOT
BRANCH   1   3
HETATM    3  C   UNK     0      26.102 -22.425 -19.605  0.00  0.00     0.099 A 
HETATM    4  C   UNK     0      26.111 -22.901 -18.294  0.00  0.00     0.050 A 
HETATM    5  C   UNK     0      25.873 -22.028 -17.232  0.00  0.00    -0.033 A 
HETATM    6  C   UNK     0      25.626 -20.678 -17.482  0.00  0.00     0.014 A 
HETATM    7  C   UNK     0      25.616 -20.202 -18.793  0.00  0.00     0.040 A 
HETATM    8  C   UNK     0      25.854 -21.075 -19.854  0.00  0.00     0.098 A 
BRANCH   5   9
HETATM    9  C   UNK     0      25.883 -22.526 -15.866  0.00  0.00     0.018 C 
HETATM   10  C   UNK     0      25.351 -23.695 -15.521  0.00  0.00     0.082 C 
BRANCH  10  11
HETATM   11  C   UNK     0      25.398 -24.101 -14.101  0.00  0.00     0.165 C 
HETATM   12  O   UNK     0      25.422 -25.243 -13.674  0.00  0.00    -0.647 OA
BRANCH  11  13
HETATM   13  O   UNK     0      25.412 -22.987 -13.332  0.00  0.00    -0.773 OA
HETATM   14  H   UNK     0      24.718 -22.347 -13.601  0.00  0.00     0.167 HD
ENDBRANCH  11  13
ENDBRANCH  10  11
ENDBRANCH   5   9
BRANCH   8  15
HETATM   15  O   UNK     0      25.843 -20.598 -21.130  0.00  0.00    -0.358 OA
HETATM   16  H   UNK     0      26.757 -20.421 -21.411  0.00  0.00     0.217 HD
ENDBRANCH   8  15
ENDBRANCH   1   3
TORSDOF 5
ENDMDL
MODEL 7
REMARK VINA RESULT:      -5.5     24.112     25.810
REMARK  5 active torsions:
REMARK  status: ('A' for Active; 'I' for Inactive)
REMARK    1  A    between atoms: O_1  and  C_8 
REMARK    2  A    between atoms: O_2  and  C_9 
REMARK    3  A    between atoms: O_3  and  C_13 
REMARK    4  A    between atoms: C_5  and  C_11 
REMARK    5  A    between atoms: C_12  and  C_13 
ROOT
HETATM    1  O   UNK     0      21.687  -1.424  -7.975  0.00  0.00    -0.358 OA
HETATM    2  H   UNK     0      20.930  -1.330  -8.578  0.00  0.00     0.217 HD
ENDROOT
BRANCH   1   3
HETATM    3  C   UNK     0      21.255  -1.191  -6.705  0.00  0.00     0.099 A 
HETATM    4  C   UNK     0      22.146  -1.326  -5.640  0.00  0.00     0.050 A 
HETATM    5  C   UNK     0      21.715  -1.089  -4.334  0.00  0.00    -0.033 A 
HETATM    6  C   UNK     0      20.393  -0.716  -4.094  0.00  0.00     0.014 A 
HETATM    7  C   UNK     0      19.502  -0.581  -5.159  0.00  0.00     0.040 A 
HETATM    8  C   UNK     0      19.933  -0.819  -6.464  0.00  0.00     0.098 A 
BRANCH   5   9
HETATM    9  C   UNK     0      22.644  -1.231  -3.225  0.00  0.00     0.018 C 
HETATM   10  C   UNK     0      22.575  -2.231  -2.351  0.00  0.00     0.082 C 
BRANCH  10  11
HETATM   11  C   UNK     0      23.559  -2.274  -1.248  0.00  0.00     0.165 C 
HETATM   12  O   UNK     0      24.763  -2.116  -1.346  0.00  0.00    -0.647 OA
BRANCH  11  13
HETATM   13  O   UNK     0      22.901  -2.521  -0.091  0.00  0.00    -0.773 OA
HETATM   14  H   UNK     0      22.046  -2.043  -0.045  0.00  0.00     0.167 HD
ENDBRANCH  11  13
ENDBRANCH  10  11
ENDBRANCH   5   9
BRANCH   8  15
HETATM   15  O   UNK     0      19.053  -0.682  -7.495  0.00  0.00    -0.358 OA
HETATM   16  H   UNK     0      19.276  -1.326  -8.189  0.00  0.00     0.217 HD
ENDBRANCH   8  15
ENDBRANCH   1   3
TORSDOF 5
ENDMDL
MODEL 8
REMARK VINA RESULT:      -5.5     23.725     25.137
REMARK  5 active torsions:
REMARK  status: ('A' for Active; 'I' for Inactive)
REMARK    1  A    between atoms: O_1  and  C_8 
REMARK    2  A    between atoms: O_2  and  C_9 
REMARK    3  A    between atoms: O_3  and  C_13 
REMARK    4  A    between atoms: C_5  and  C_11 
REMARK    5  A    between atoms: C_12  and  C_13 
ROOT
HETATM    1  O   UNK     0      20.452  -2.455  -6.902  0.00  0.00    -0.358 OA
HETATM    2  H   UNK     0      19.488  -2.360  -6.986  0.00  0.00     0.217 HD
ENDROOT
BRANCH   1   3
HETATM    3  C   UNK     0      20.787  -2.286  -5.592  0.00  0.00     0.099 A 
HETATM    4  C   UNK     0      20.927  -3.403  -4.769  0.00  0.00     0.050 A 
HETATM    5  C   UNK     0      21.270  -3.243  -3.426  0.00  0.00    -0.033 A 
HETATM    6  C   UNK     0      21.475  -1.964  -2.908  0.00  0.00     0.014 A 
HETATM    7  C   UNK     0      21.335  -0.847  -3.731  0.00  0.00     0.040 A 
HETATM    8  C   UNK     0      20.991  -1.008  -5.073  0.00  0.00     0.098 A 
BRANCH   5   9
HETATM    9  C   UNK     0      21.415  -4.408  -2.569  0.00  0.00     0.018 C 
HETATM   10  C   UNK     0      20.510  -4.746  -1.654  0.00  0.00     0.082 C 
BRANCH  10  11
HETATM   11  C   UNK     0      20.761  -5.941  -0.821  0.00  0.00     0.165 C 
HETATM   12  O   UNK     0      21.789  -6.595  -0.783  0.00  0.00    -0.647 OA
BRANCH  11  13
HETATM   13  O   UNK     0      19.650  -6.201  -0.092  0.00  0.00    -0.773 OA
HETATM   14  H   UNK     0      18.831  -5.939  -0.564  0.00  0.00     0.167 HD
ENDBRANCH  11  13
ENDBRANCH  10  11
ENDBRANCH   5   9
BRANCH   8  15
HETATM   15  O   UNK     0      20.859   0.091  -5.867  0.00  0.00    -0.358 OA
HETATM   16  H   UNK     0      21.231   0.862  -5.406  0.00  0.00     0.217 HD
ENDBRANCH   8  15
ENDBRANCH   1   3
TORSDOF 5
ENDMDL
MODEL 9
REMARK VINA RESULT:      -5.5      2.365      3.381
REMARK  5 active torsions:
REMARK  status: ('A' for Active; 'I' for Inactive)
REMARK    1  A    between atoms: O_1  and  C_8 
REMARK    2  A    between atoms: O_2  and  C_9 
REMARK    3  A    between atoms: O_3  and  C_13 
REMARK    4  A    between atoms: C_5  and  C_11 
REMARK    5  A    between atoms: C_12  and  C_13 
ROOT
HETATM    1  O   UNK     0      25.717 -24.959 -14.769  0.00  0.00    -0.358 OA
HETATM    2  H   UNK     0      25.997 -25.719 -15.306  0.00  0.00     0.217 HD
ENDROOT
BRANCH   1   3
HETATM    3  C   UNK     0      25.627 -23.869 -15.580  0.00  0.00     0.099 A 
HETATM    4  C   UNK     0      25.767 -24.026 -16.959  0.00  0.00     0.050 A 
HETATM    5  C   UNK     0      25.676 -22.916 -17.800  0.00  0.00    -0.033 A 
HETATM    6  C   UNK     0      25.444 -21.651 -17.262  0.00  0.00     0.014 A 
HETATM    7  C   UNK     0      25.304 -21.494 -15.883  0.00  0.00     0.040 A 
HETATM    8  C   UNK     0      25.396 -22.603 -15.042  0.00  0.00     0.098 A 
BRANCH   5   9
HETATM    9  C   UNK     0      25.823 -23.080 -19.237  0.00  0.00     0.018 C 
HETATM   10  C   UNK     0      26.911 -22.697 -19.899  0.00  0.00     0.082 C 
BRANCH  10  11
HETATM   11  C   UNK     0      26.953 -22.893 -21.364  0.00  0.00     0.165 C 
HETATM   12  O   UNK     0      27.949 -22.892 -22.067  0.00  0.00    -0.647 OA
BRANCH  11  13
HETATM   13  O   UNK     0      25.689 -23.077 -21.812  0.00  0.00    -0.773 OA
HETATM   14  H   UNK     0      25.522 -22.591 -22.648  0.00  0.00     0.167 HD
ENDBRANCH  11  13
ENDBRANCH  10  11
ENDBRANCH   5   9
BRANCH   8  15
HETATM   15  O   UNK     0      25.257 -22.438 -13.697  0.00  0.00    -0.358 OA
HETATM   16  H   UNK     0      25.452 -23.280 -13.252  0.00  0.00     0.217 HD
ENDBRANCH   8  15
ENDBRANCH   1   3
TORSDOF 5
ENDMDL
