MODEL 1
REMARK VINA RESULT:      -5.9      0.000      0.000
REMARK  5 active torsions:
REMARK  status: ('A' for Active; 'I' for Inactive)
REMARK    1  A    between atoms: O_1  and  C_8 
REMARK    2  A    between atoms: O_2  and  C_9 
REMARK    3  A    between atoms: O_3  and  C_13 
REMARK    4  A    between atoms: C_5  and  C_11 
REMARK    5  A    between atoms: C_12  and  C_13 
ROOT
HETATM    1  O   UNK     0      86.865  46.988  41.945  0.00  0.00    -0.358 OA
HETATM    2  H   UNK     0      87.101  46.058  42.100  0.00  0.00     0.217 HD
ENDROOT
BRANCH   1   3
HETATM    3  C   UNK     0      88.014  47.703  41.791  0.00  0.00     0.099 A 
HETATM    4  C   UNK     0      87.944  49.050  41.436  0.00  0.00     0.050 A 
HETATM    5  C   UNK     0      89.114  49.792  41.276  0.00  0.00    -0.033 A 
HETATM    6  C   UNK     0      90.355  49.187  41.474  0.00  0.00     0.014 A 
HETATM    7  C   UNK     0      90.426  47.840  41.829  0.00  0.00     0.040 A 
HETATM    8  C   UNK     0      89.256  47.098  41.988  0.00  0.00     0.098 A 
BRANCH   5   9
HETATM    9  C   UNK     0      89.040  51.196  40.905  0.00  0.00     0.018 C 
HETATM   10  C   UNK     0      89.485  51.658  39.739  0.00  0.00     0.082 C 
BRANCH  10  11
HETATM   11  C   UNK     0      89.378  53.106  39.466  0.00  0.00     0.165 C 
HETATM   12  O   UNK     0      89.988  53.997  40.033  0.00  0.00    -0.647 OA
BRANCH  11  13
HETATM   13  O   UNK     0      88.481  53.294  38.470  0.00  0.00    -0.773 OA
HETATM   14  H   UNK     0      87.913  52.506  38.334  0.00  0.00     0.167 HD
ENDBRANCH  11  13
ENDBRANCH  10  11
ENDBRANCH   5   9
BRANCH   8  15
HETATM   15  O   UNK     0      89.338  45.784  42.337  0.00  0.00    -0.358 OA
HETATM   16  H   UNK     0      89.470  45.251  41.534  0.00  0.00     0.217 HD
ENDBRANCH   8  15
ENDBRANCH   1   3
TORSDOF 5
ENDMDL
MODEL 2
REMARK VINA RESULT:      -5.7     16.800     18.124
REMARK  5 active torsions:
REMARK  status: ('A' for Active; 'I' for Inactive)
REMARK    1  A    between atoms: O_1  and  C_8 
REMARK    2  A    between atoms: O_2  and  C_9 
REMARK    3  A    between atoms: O_3  and  C_13 
REMARK    4  A    between atoms: C_5  and  C_11 
REMARK    5  A    between atoms: C_12  and  C_13 
ROOT
HETATM    1  O   UNK     0      76.102  50.871  33.604  0.00  0.00    -0.358 OA
HETATM    2  H   UNK     0      75.832  51.443  32.865  0.00  0.00     0.217 HD
ENDROOT
BRANCH   1   3
HETATM    3  C   UNK     0      75.541  49.643  33.423  0.00  0.00     0.099 A 
HETATM    4  C   UNK     0      74.242  49.548  32.924  0.00  0.00     0.050 A 
HETATM    5  C   UNK     0      73.658  48.295  32.734  0.00  0.00    -0.033 A 
HETATM    6  C   UNK     0      74.373  47.138  33.043  0.00  0.00     0.014 A 
HETATM    7  C   UNK     0      75.672  47.234  33.542  0.00  0.00     0.040 A 
HETATM    8  C   UNK     0      76.255  48.486  33.733  0.00  0.00     0.098 A 
BRANCH   5   9
HETATM    9  C   UNK     0      72.304  48.196  32.213  0.00  0.00     0.018 C 
HETATM   10  C   UNK     0      71.505  47.164  32.473  0.00  0.00     0.082 C 
BRANCH  10  11
HETATM   11  C   UNK     0      70.151  47.153  31.881  0.00  0.00     0.165 C 
HETATM   12  O   UNK     0      69.098  47.043  32.484  0.00  0.00    -0.647 OA
BRANCH  11  13
HETATM   13  O   UNK     0      70.264  47.285  30.539  0.00  0.00    -0.773 OA
HETATM   14  H   UNK     0      69.396  47.446  30.111  0.00  0.00     0.167 HD
ENDBRANCH  11  13
ENDBRANCH  10  11
ENDBRANCH   5   9
BRANCH   8  15
HETATM   15  O   UNK     0      77.525  48.566  34.220  0.00  0.00    -0.358 OA
HETATM   16  H   UNK     0      77.786  49.502  34.272  0.00  0.00     0.217 HD
ENDBRANCH   8  15
ENDBRANCH   1   3
TORSDOF 5
ENDMDL
MODEL 3
REMARK VINA RESULT:      -5.6     17.791     18.931
REMARK  5 active torsions:
REMARK  status: ('A' for Active; 'I' for Inactive)
REMARK    1  A    between atoms: O_1  and  C_8 
REMARK    2  A    between atoms: O_2  and  C_9 
REMARK    3  A    between atoms: O_3  and  C_13 
REMARK    4  A    between atoms: C_5  and  C_11 
REMARK    5  A    between atoms: C_12  and  C_13 
ROOT
HETATM    1  O   UNK     0      71.177  46.127  29.715  0.00  0.00    -0.358 OA
HETATM    2  H   UNK     0      71.208  46.864  29.082  0.00  0.00     0.217 HD
ENDROOT
BRANCH   1   3
HETATM    3  C   UNK     0      71.246  46.641  30.975  0.00  0.00     0.099 A 
HETATM    4  C   UNK     0      72.480  47.036  31.489  0.00  0.00     0.050 A 
HETATM    5  C   UNK     0      72.563  47.565  32.778  0.00  0.00    -0.033 A 
HETATM    6  C   UNK     0      71.410  47.699  33.551  0.00  0.00     0.014 A 
HETATM    7  C   UNK     0      70.175  47.303  33.037  0.00  0.00     0.040 A 
HETATM    8  C   UNK     0      70.093  46.774  31.749  0.00  0.00     0.098 A 
BRANCH   5   9
HETATM    9  C   UNK     0      73.850  47.976  33.314  0.00  0.00     0.018 C 
HETATM   10  C   UNK     0      74.221  49.251  33.401  0.00  0.00     0.082 C 
BRANCH  10  11
HETATM   11  C   UNK     0      75.559  49.561  33.946  0.00  0.00     0.165 C 
HETATM   12  O   UNK     0      76.224  48.853  34.682  0.00  0.00    -0.647 OA
BRANCH  11  13
HETATM   13  O   UNK     0      75.940  50.778  33.492  0.00  0.00    -0.773 OA
HETATM   14  H   UNK     0      75.317  51.131  32.820  0.00  0.00     0.167 HD
ENDBRANCH  11  13
ENDBRANCH  10  11
ENDBRANCH   5   9
BRANCH   8  15
HETATM   15  O   UNK     0      68.882  46.393  31.257  0.00  0.00    -0.358 OA
HETATM   16  H   UNK     0      68.702  46.886  30.438  0.00  0.00     0.217 HD
ENDBRANCH   8  15
ENDBRANCH   1   3
TORSDOF 5
ENDMDL
MODEL 4
REMARK VINA RESULT:      -5.5      8.398      8.969
REMARK  5 active torsions:
REMARK  status: ('A' for Active; 'I' for Inactive)
REMARK    1  A    between atoms: O_1  and  C_8 
REMARK    2  A    between atoms: O_2  and  C_9 
REMARK    3  A    between atoms: O_3  and  C_13 
REMARK    4  A    between atoms: C_5  and  C_11 
REMARK    5  A    between atoms: C_12  and  C_13 
ROOT
HETATM    1  O   UNK     0      84.456  53.863  50.089  0.00  0.00    -0.358 OA
HETATM    2  H   UNK     0      85.093  54.302  50.679  0.00  0.00     0.217 HD
ENDROOT
BRANCH   1   3
HETATM    3  C   UNK     0      84.924  53.946  48.813  0.00  0.00     0.099 A 
HETATM    4  C   UNK     0      84.673  55.095  48.063  0.00  0.00     0.050 A 
HETATM    5  C   UNK     0      85.149  55.191  46.754  0.00  0.00    -0.033 A 
HETATM    6  C   UNK     0      85.875  54.139  46.198  0.00  0.00     0.014 A 
HETATM    7  C   UNK     0      86.126  52.990  46.948  0.00  0.00     0.040 A 
HETATM    8  C   UNK     0      85.650  52.894  48.256  0.00  0.00     0.098 A 
BRANCH   5   9
HETATM    9  C   UNK     0      84.887  56.389  45.972  0.00  0.00     0.018 C 
HETATM   10  C   UNK     0      85.803  56.956  45.193  0.00  0.00     0.082 C 
BRANCH  10  11
HETATM   11  C   UNK     0      85.440  58.182  44.452  0.00  0.00     0.165 C 
HETATM   12  O   UNK     0      85.977  58.604  43.443  0.00  0.00    -0.647 OA
BRANCH  11  13
HETATM   13  O   UNK     0      84.398  58.775  45.081  0.00  0.00    -0.773 OA
HETATM   14  H   UNK     0      84.139  59.617  44.648  0.00  0.00     0.167 HD
ENDBRANCH  11  13
ENDBRANCH  10  11
ENDBRANCH   5   9
BRANCH   8  15
HETATM   15  O   UNK     0      85.902  51.768  48.979  0.00  0.00    -0.358 OA
HETATM   16  H   UNK     0      85.823  51.975  49.926  0.00  0.00     0.217 HD
ENDBRANCH   8  15
ENDBRANCH   1   3
TORSDOF 5
ENDMDL
MODEL 5
REMARK VINA RESULT:      -5.5     10.619     11.634
REMARK  5 active torsions:
REMARK  status: ('A' for Active; 'I' for Inactive)
REMARK    1  A    between atoms: O_1  and  C_8 
REMARK    2  A    between atoms: O_2  and  C_9 
REMARK    3  A    between atoms: O_3  and  C_13 
REMARK    4  A    between atoms: C_5  and  C_11 
REMARK    5  A    between atoms: C_12  and  C_13 
ROOT
HETATM    1  O   UNK     0      83.596  55.227  48.586  0.00  0.00    -0.358 OA
HETATM    2  H   UNK     0      83.970  55.985  49.066  0.00  0.00     0.217 HD
ENDROOT
BRANCH   1   3
HETATM    3  C   UNK     0      84.405  54.150  48.785  0.00  0.00     0.099 A 
HETATM    4  C   UNK     0      84.805  53.820  50.080  0.00  0.00     0.050 A 
HETATM    5  C   UNK     0      85.633  52.719  50.296  0.00  0.00    -0.033 A 
HETATM    6  C   UNK     0      86.062  51.947  49.216  0.00  0.00     0.014 A 
HETATM    7  C   UNK     0      85.662  52.276  47.921  0.00  0.00     0.040 A 
HETATM    8  C   UNK     0      84.835  53.378  47.705  0.00  0.00     0.098 A 
BRANCH   5   9
HETATM    9  C   UNK     0      86.050  52.376  51.646  0.00  0.00     0.018 C 
HETATM   10  C   UNK     0      86.834  53.162  52.380  0.00  0.00     0.082 C 
BRANCH  10  11
HETATM   11  C   UNK     0      87.213  52.713  53.736  0.00  0.00     0.165 C 
HETATM   12  O   UNK     0      87.055  53.331  54.774  0.00  0.00    -0.647 OA
BRANCH  11  13
HETATM   13  O   UNK     0      87.774  51.484  53.644  0.00  0.00    -0.773 OA
HETATM   14  H   UNK     0      87.227  50.870  53.108  0.00  0.00     0.167 HD
ENDBRANCH  11  13
ENDBRANCH  10  11
ENDBRANCH   5   9
BRANCH   8  15
HETATM   15  O   UNK     0      84.451  53.689  46.436  0.00  0.00    -0.358 OA
HETATM   16  H   UNK     0      84.864  54.530  46.176  0.00  0.00     0.217 HD
ENDBRANCH   8  15
ENDBRANCH   1   3
TORSDOF 5
ENDMDL
MODEL 6
REMARK VINA RESULT:      -5.3     18.339     19.813
REMARK  5 active torsions:
REMARK  status: ('A' for Active; 'I' for Inactive)
REMARK    1  A    between atoms: O_1  and  C_8 
REMARK    2  A    between atoms: O_2  and  C_9 
REMARK    3  A    between atoms: O_3  and  C_13 
REMARK    4  A    between atoms: C_5  and  C_11 
REMARK    5  A    between atoms: C_12  and  C_13 
ROOT
HETATM    1  O   UNK     0      74.411  48.670  34.761  0.00  0.00    -0.358 OA
HETATM    2  H   UNK     0      73.874  48.250  35.454  0.00  0.00     0.217 HD
ENDROOT
BRANCH   1   3
HETATM    3  C   UNK     0      73.866  48.367  33.551  0.00  0.00     0.099 A 
HETATM    4  C   UNK     0      72.659  47.669  33.496  0.00  0.00     0.050 A 
HETATM    5  C   UNK     0      72.090  47.353  32.262  0.00  0.00    -0.033 A 
HETATM    6  C   UNK     0      72.728  47.736  31.082  0.00  0.00     0.014 A 
HETATM    7  C   UNK     0      73.935  48.435  31.137  0.00  0.00     0.040 A 
HETATM    8  C   UNK     0      74.503  48.749  32.371  0.00  0.00     0.098 A 
BRANCH   5   9
HETATM    9  C   UNK     0      70.833  46.624  32.206  0.00  0.00     0.018 C 
HETATM   10  C   UNK     0      69.705  47.091  32.735  0.00  0.00     0.082 C 
BRANCH  10  11
HETATM   11  C   UNK     0      68.485  46.264  32.639  0.00  0.00     0.165 C 
HETATM   12  O   UNK     0      67.376  46.645  32.306  0.00  0.00    -0.647 OA
BRANCH  11  13
HETATM   13  O   UNK     0      68.795  44.992  32.983  0.00  0.00    -0.773 OA
HETATM   14  H   UNK     0      69.672  44.721  32.634  0.00  0.00     0.167 HD
ENDBRANCH  11  13
ENDBRANCH  10  11
ENDBRANCH   5   9
BRANCH   8  15
HETATM   15  O   UNK     0      75.681  49.432  32.411  0.00  0.00    -0.358 OA
HETATM   16  H   UNK     0      75.581  50.266  31.921  0.00  0.00     0.217 HD
ENDBRANCH   8  15
ENDBRANCH   1   3
TORSDOF 5
ENDMDL
MODEL 7
REMARK VINA RESULT:      -5.1      2.292      2.860
REMARK  5 active torsions:
REMARK  status: ('A' for Active; 'I' for Inactive)
REMARK    1  A    between atoms: O_1  and  C_8 
REMARK    2  A    between atoms: O_2  and  C_9 
REMARK    3  A    between atoms: O_3  and  C_13 
REMARK    4  A    between atoms: C_5  and  C_11 
REMARK    5  A    between atoms: C_12  and  C_13 
ROOT
HETATM    1  O   UNK     0      86.522  47.458  42.989  0.00  0.00    -0.358 OA
HETATM    2  H   UNK     0      87.094  46.773  43.377  0.00  0.00     0.217 HD
ENDROOT
BRANCH   1   3
HETATM    3  C   UNK     0      87.029  48.678  43.319  0.00  0.00     0.099 A 
HETATM    4  C   UNK     0      87.835  49.358  42.405  0.00  0.00     0.050 A 
HETATM    5  C   UNK     0      88.359  50.609  42.732  0.00  0.00    -0.033 A 
HETATM    6  C   UNK     0      88.076  51.180  43.973  0.00  0.00     0.014 A 
HETATM    7  C   UNK     0      87.271  50.500  44.887  0.00  0.00     0.040 A 
HETATM    8  C   UNK     0      86.748  49.249  44.560  0.00  0.00     0.098 A 
BRANCH   5   9
HETATM    9  C   UNK     0      89.199  51.316  41.779  0.00  0.00     0.018 C 
HETATM   10  C   UNK     0      88.779  52.379  41.098  0.00  0.00     0.082 C 
BRANCH  10  11
HETATM   11  C   UNK     0      89.707  53.016  40.141  0.00  0.00     0.165 C 
HETATM   12  O   UNK     0      90.254  54.098  40.272  0.00  0.00    -0.647 OA
BRANCH  11  13
HETATM   13  O   UNK     0      89.859  52.196  39.075  0.00  0.00    -0.773 OA
HETATM   14  H   UNK     0      89.644  52.648  38.230  0.00  0.00     0.167 HD
ENDBRANCH  11  13
ENDBRANCH  10  11
ENDBRANCH   5   9
BRANCH   8  15
HETATM   15  O   UNK     0      85.962  48.596  45.460  0.00  0.00    -0.358 OA
HETATM   16  H   UNK     0      85.245  49.188  45.744  0.00  0.00     0.217 HD
ENDBRANCH   8  15
ENDBRANCH   1   3
TORSDOF 5
ENDMDL
MODEL 8
REMARK VINA RESULT:      -5.0      6.998      8.091
REMARK  5 active torsions:
REMARK  status: ('A' for Active; 'I' for Inactive)
REMARK    1  A    between atoms: O_1  and  C_8 
REMARK    2  A    between atoms: O_2  and  C_9 
REMARK    3  A    between atoms: O_3  and  C_13 
REMARK    4  A    between atoms: C_5  and  C_11 
REMARK    5  A    between atoms: C_12  and  C_13 
ROOT
HETATM    1  O   UNK     0      82.661  54.498  39.882  0.00  0.00    -0.358 OA
HETATM    2  H   UNK     0      82.785  55.448  39.710  0.00  0.00     0.217 HD
ENDROOT
BRANCH   1   3
HETATM    3  C   UNK     0      83.230  54.202  41.083  0.00  0.00     0.099 A 
HETATM    4  C   UNK     0      83.885  55.204  41.799  0.00  0.00     0.050 A 
HETATM    5  C   UNK     0      84.471  54.912  43.032  0.00  0.00    -0.033 A 
HETATM    6  C   UNK     0      84.401  53.618  43.547  0.00  0.00     0.014 A 
HETATM    7  C   UNK     0      83.746  52.616  42.831  0.00  0.00     0.040 A 
HETATM    8  C   UNK     0      83.162  52.908  41.599  0.00  0.00     0.098 A 
BRANCH   5   9
HETATM    9  C   UNK     0      85.154  55.956  43.777  0.00  0.00     0.018 C 
HETATM   10  C   UNK     0      84.777  57.231  43.743  0.00  0.00     0.082 C 
BRANCH  10  11
HETATM   11  C   UNK     0      85.550  58.219  44.525  0.00  0.00     0.165 C 
HETATM   12  O   UNK     0      85.435  58.449  45.716  0.00  0.00    -0.647 OA
BRANCH  11  13
HETATM   13  O   UNK     0      86.423  58.839  43.697  0.00  0.00    -0.773 OA
HETATM   14  H   UNK     0      87.317  58.438  43.739  0.00  0.00     0.167 HD
ENDBRANCH  11  13
ENDBRANCH  10  11
ENDBRANCH   5   9
BRANCH   8  15
HETATM   15  O   UNK     0      82.524  51.921  40.910  0.00  0.00    -0.358 OA
HETATM   16  H   UNK     0      81.698  52.276  40.539  0.00  0.00     0.217 HD
ENDBRANCH   8  15
ENDBRANCH   1   3
TORSDOF 5
ENDMDL
MODEL 9
REMARK VINA RESULT:      -4.8     15.763     17.074
REMARK  5 active torsions:
REMARK  status: ('A' for Active; 'I' for Inactive)
REMARK    1  A    between atoms: O_1  and  C_8 
REMARK    2  A    between atoms: O_2  and  C_9 
REMARK    3  A    between atoms: O_3  and  C_13 
REMARK    4  A    between atoms: C_5  and  C_11 
REMARK    5  A    between atoms: C_12  and  C_13 
ROOT
HETATM    1  O   UNK     0     105.579  45.797  31.285  0.00  0.00    -0.358 OA
HETATM    2  H   UNK     0     106.138  46.359  31.848  0.00  0.00     0.217 HD
ENDROOT
BRANCH   1   3
HETATM    3  C   UNK     0     104.284  46.186  31.442  0.00  0.00     0.099 A 
HETATM    4  C   UNK     0     103.296  45.221  31.637  0.00  0.00     0.050 A 
HETATM    5  C   UNK     0     101.965  45.608  31.800  0.00  0.00    -0.033 A 
HETATM    6  C   UNK     0     101.623  46.960  31.769  0.00  0.00     0.014 A 
HETATM    7  C   UNK     0     102.611  47.924  31.573  0.00  0.00     0.040 A 
HETATM    8  C   UNK     0     103.941  47.537  31.409  0.00  0.00     0.098 A 
BRANCH   5   9
HETATM    9  C   UNK     0     100.935  44.601  32.004  0.00  0.00     0.018 C 
HETATM   10  C   UNK     0      99.740  44.886  32.513  0.00  0.00     0.082 C 
BRANCH  10  11
HETATM   11  C   UNK     0      98.770  43.786  32.695  0.00  0.00     0.165 C 
HETATM   12  O   UNK     0      98.840  42.886  33.515  0.00  0.00    -0.647 OA
BRANCH  11  13
HETATM   13  O   UNK     0      97.772  43.934  31.792  0.00  0.00    -0.773 OA
HETATM   14  H   UNK     0      98.092  43.828  30.870  0.00  0.00     0.167 HD
ENDBRANCH  11  13
ENDBRANCH  10  11
ENDBRANCH   5   9
BRANCH   8  15
HETATM   15  O   UNK     0     104.897  48.489  31.220  0.00  0.00    -0.358 OA
HETATM   16  H   UNK     0     105.761  48.055  31.118  0.00  0.00     0.217 HD
ENDBRANCH   8  15
ENDBRANCH   1   3
TORSDOF 5
ENDMDL
