REMARK  5 active torsions:
REMARK  status: ('A' for Active; 'I' for Inactive)
REMARK    1  A    between atoms: O_1  and  C_7 
REMARK    2  A    between atoms: O_2  and  C_8 
REMARK    3  A    between atoms: O_3  and  C_9 
REMARK    4  A    between atoms: O_4  and  C_12 
REMARK    5  A    between atoms: C_6  and  C_12 
ROOT
HETATM    1  O   UNK     0       3.116  -0.041  -0.001  0.00  0.00    -0.356 OA
HETATM    2  H   UNK     0       3.441   0.876  -0.001  0.00  0.00     0.218 HD
ENDROOT
BRANCH   1   3
HETATM    3  C   UNK     0       1.753  -0.014   0.000  0.00  0.00     0.132 A 
HETATM    4  C   UNK     0       1.079   1.207   0.000  0.00  0.00     0.102 A 
HETATM    5  C   UNK     0      -0.315   1.235   0.000  0.00  0.00     0.057 A 
HETATM    6  C   UNK     0      -1.037   0.042   0.001  0.00  0.00     0.043 A 
HETATM    7  C   UNK     0      -0.363  -1.180   0.001  0.00  0.00     0.057 A 
HETATM    8  C   UNK     0       1.031  -1.208   0.001  0.00  0.00     0.102 A 
BRANCH   4   9
HETATM    9  O   UNK     0       1.773   2.380  -0.000  0.00  0.00    -0.358 OA
HETATM   10  H   UNK     0       1.143   3.122  -0.001  0.00  0.00     0.217 HD
ENDBRANCH   4   9
BRANCH   6  11
HETATM   11  C   UNK     0      -2.491   0.071   0.000  0.00  0.00     0.176 C 
HETATM   12  O   UNK     0      -3.186   1.092  -0.000  0.00  0.00    -0.646 OA
BRANCH  11  13
HETATM   13  O   UNK     0      -3.036  -1.176  -0.001  0.00  0.00    -0.773 OA
HETATM   14  H   UNK     0      -4.017  -1.146  -0.002  0.00  0.00     0.167 HD
ENDBRANCH  11  13
ENDBRANCH   6  11
BRANCH   8  15
HETATM   15  O   UNK     0       1.677  -2.408  -0.001  0.00  0.00    -0.358 OA
HETATM   16  H   UNK     0       2.635  -2.239  -0.001  0.00  0.00     0.217 HD
ENDBRANCH   8  15
ENDBRANCH   1   3
TORSDOF 5
