MODEL 1
REMARK VINA RESULT:      -5.3      0.000      0.000
REMARK  5 active torsions:
REMARK  status: ('A' for Active; 'I' for Inactive)
REMARK    1  A    between atoms: O_1  and  C_7 
REMARK    2  A    between atoms: O_2  and  C_8 
REMARK    3  A    between atoms: O_3  and  C_9 
REMARK    4  A    between atoms: O_4  and  C_12 
REMARK    5  A    between atoms: C_6  and  C_12 
ROOT
HETATM    1  O   UNK     0      26.160   6.493  68.759  0.00  0.00    -0.356 OA
HETATM    2  H   UNK     0      25.268   6.606  69.129  0.00  0.00     0.218 HD
ENDROOT
BRANCH   1   3
HETATM    3  C   UNK     0      26.066   5.721  67.639  0.00  0.00     0.132 A 
HETATM    4  C   UNK     0      25.544   4.431  67.723  0.00  0.00     0.102 A 
HETATM    5  C   UNK     0      25.447   3.641  66.579  0.00  0.00     0.057 A 
HETATM    6  C   UNK     0      25.872   4.140  65.348  0.00  0.00     0.043 A 
HETATM    7  C   UNK     0      26.395   5.431  65.263  0.00  0.00     0.057 A 
HETATM    8  C   UNK     0      26.493   6.221  66.408  0.00  0.00     0.102 A 
BRANCH   4   9
HETATM    9  O   UNK     0      25.125   3.931  68.920  0.00  0.00    -0.358 OA
HETATM   10  H   UNK     0      24.307   3.422  68.783  0.00  0.00     0.217 HD
ENDBRANCH   4   9
BRANCH   6  11
HETATM   11  C   UNK     0      25.770   3.316  64.154  0.00  0.00     0.176 C 
HETATM   12  O   UNK     0      24.725   2.837  63.703  0.00  0.00    -0.646 OA
BRANCH  11  13
HETATM   13  O   UNK     0      26.976   3.115  63.556  0.00  0.00    -0.773 OA
HETATM   14  H   UNK     0      27.540   3.918  63.590  0.00  0.00     0.167 HD
ENDBRANCH  11  13
ENDBRANCH   6  11
BRANCH   8  15
HETATM   15  O   UNK     0      27.003   7.481  66.311  0.00  0.00    -0.358 OA
HETATM   16  H   UNK     0      26.797   7.958  67.134  0.00  0.00     0.217 HD
ENDBRANCH   8  15
ENDBRANCH   1   3
TORSDOF 5
ENDMDL
MODEL 2
REMARK VINA RESULT:      -5.3     56.551     57.240
REMARK  5 active torsions:
REMARK  status: ('A' for Active; 'I' for Inactive)
REMARK    1  A    between atoms: O_1  and  C_7 
REMARK    2  A    between atoms: O_2  and  C_8 
REMARK    3  A    between atoms: O_3  and  C_9 
REMARK    4  A    between atoms: O_4  and  C_12 
REMARK    5  A    between atoms: C_6  and  C_12 
ROOT
HETATM    1  O   UNK     0      46.046 -23.206  20.200  0.00  0.00    -0.356 OA
HETATM    2  H   UNK     0      45.184 -23.411  19.798  0.00  0.00     0.218 HD
ENDROOT
BRANCH   1   3
HETATM    3  C   UNK     0      46.324 -24.162  21.131  0.00  0.00     0.132 A 
HETATM    4  C   UNK     0      47.640 -24.378  21.538  0.00  0.00     0.102 A 
HETATM    5  C   UNK     0      47.925 -25.355  22.492  0.00  0.00     0.057 A 
HETATM    6  C   UNK     0      46.893 -26.118  23.039  0.00  0.00     0.043 A 
HETATM    7  C   UNK     0      45.576 -25.901  22.632  0.00  0.00     0.057 A 
HETATM    8  C   UNK     0      45.291 -24.925  21.679  0.00  0.00     0.102 A 
BRANCH   4   9
HETATM    9  O   UNK     0      48.657 -23.641  21.010  0.00  0.00    -0.358 OA
HETATM   10  H   UNK     0      48.512 -22.702  21.222  0.00  0.00     0.217 HD
ENDBRANCH   4   9
BRANCH   6  11
HETATM   11  C   UNK     0      47.190 -27.136  24.034  0.00  0.00     0.176 C 
HETATM   12  O   UNK     0      46.466 -27.434  24.989  0.00  0.00    -0.646 OA
BRANCH  11  13
HETATM   13  O   UNK     0      48.382 -27.752  23.809  0.00  0.00    -0.773 OA
HETATM   14  H   UNK     0      48.612 -27.765  22.855  0.00  0.00     0.167 HD
ENDBRANCH  11  13
ENDBRANCH   6  11
BRANCH   8  15
HETATM   15  O   UNK     0      44.000 -24.723  21.292  0.00  0.00    -0.358 OA
HETATM   16  H   UNK     0      43.836 -23.764  21.268  0.00  0.00     0.217 HD
ENDBRANCH   8  15
ENDBRANCH   1   3
TORSDOF 5
ENDMDL
MODEL 3
REMARK VINA RESULT:      -5.2      1.601      4.216
REMARK  5 active torsions:
REMARK  status: ('A' for Active; 'I' for Inactive)
REMARK    1  A    between atoms: O_1  and  C_7 
REMARK    2  A    between atoms: O_2  and  C_8 
REMARK    3  A    between atoms: O_3  and  C_9 
REMARK    4  A    between atoms: O_4  and  C_12 
REMARK    5  A    between atoms: C_6  and  C_12 
ROOT
HETATM    1  O   UNK     0      27.827   7.128  62.981  0.00  0.00    -0.356 OA
HETATM    2  H   UNK     0      28.196   7.996  63.219  0.00  0.00     0.218 HD
ENDROOT
BRANCH   1   3
HETATM    3  C   UNK     0      27.345   6.540  64.113  0.00  0.00     0.132 A 
HETATM    4  C   UNK     0      26.863   7.329  65.157  0.00  0.00     0.102 A 
HETATM    5  C   UNK     0      26.369   6.729  66.315  0.00  0.00     0.057 A 
HETATM    6  C   UNK     0      26.358   5.339  66.430  0.00  0.00     0.043 A 
HETATM    7  C   UNK     0      26.840   4.550  65.385  0.00  0.00     0.057 A 
HETATM    8  C   UNK     0      27.334   5.150  64.227  0.00  0.00     0.102 A 
BRANCH   4   9
HETATM    9  O   UNK     0      26.869   8.688  65.057  0.00  0.00    -0.358 OA
HETATM   10  H   UNK     0      26.750   9.072  65.944  0.00  0.00     0.217 HD
ENDBRANCH   4   9
BRANCH   6  11
HETATM   11  C   UNK     0      25.842   4.712  67.637  0.00  0.00     0.176 C 
HETATM   12  O   UNK     0      25.205   3.655  67.677  0.00  0.00    -0.646 OA
BRANCH  11  13
HETATM   13  O   UNK     0      26.136   5.424  68.758  0.00  0.00    -0.773 OA
HETATM   14  H   UNK     0      25.335   5.828  69.156  0.00  0.00     0.167 HD
ENDBRANCH  11  13
ENDBRANCH   6  11
BRANCH   8  15
HETATM   15  O   UNK     0      27.800   4.368  63.213  0.00  0.00    -0.358 OA
HETATM   16  H   UNK     0      27.671   3.436  63.462  0.00  0.00     0.217 HD
ENDBRANCH   8  15
ENDBRANCH   1   3
TORSDOF 5
ENDMDL
MODEL 4
REMARK VINA RESULT:      -5.2      0.390      2.427
REMARK  5 active torsions:
REMARK  status: ('A' for Active; 'I' for Inactive)
REMARK    1  A    between atoms: O_1  and  C_7 
REMARK    2  A    between atoms: O_2  and  C_8 
REMARK    3  A    between atoms: O_3  and  C_9 
REMARK    4  A    between atoms: O_4  and  C_12 
REMARK    5  A    between atoms: C_6  and  C_12 
ROOT
HETATM    1  O   UNK     0      26.418   6.867  68.342  0.00  0.00    -0.356 OA
HETATM    2  H   UNK     0      25.793   6.616  69.044  0.00  0.00     0.218 HD
ENDROOT
BRANCH   1   3
HETATM    3  C   UNK     0      26.264   6.002  67.300  0.00  0.00     0.132 A 
HETATM    4  C   UNK     0      26.648   6.382  66.014  0.00  0.00     0.102 A 
HETATM    5  C   UNK     0      26.491   5.498  64.948  0.00  0.00     0.057 A 
HETATM    6  C   UNK     0      25.948   4.232  65.166  0.00  0.00     0.043 A 
HETATM    7  C   UNK     0      25.564   3.851  66.452  0.00  0.00     0.057 A 
HETATM    8  C   UNK     0      25.721   4.735  67.518  0.00  0.00     0.102 A 
BRANCH   4   9
HETATM    9  O   UNK     0      27.179   7.617  65.788  0.00  0.00    -0.358 OA
HETATM   10  H   UNK     0      27.291   7.744  64.830  0.00  0.00     0.217 HD
ENDBRANCH   4   9
BRANCH   6  11
HETATM   11  C   UNK     0      25.786   3.309  64.054  0.00  0.00     0.176 C 
HETATM   12  O   UNK     0      24.721   2.785  63.709  0.00  0.00    -0.646 OA
BRANCH  11  13
HETATM   13  O   UNK     0      26.956   3.066  63.404  0.00  0.00    -0.773 OA
HETATM   14  H   UNK     0      26.850   2.389  62.700  0.00  0.00     0.167 HD
ENDBRANCH  11  13
ENDBRANCH   6  11
BRANCH   8  15
HETATM   15  O   UNK     0      25.343   4.350  68.769  0.00  0.00    -0.358 OA
HETATM   16  H   UNK     0      26.113   3.956  69.213  0.00  0.00     0.217 HD
ENDBRANCH   8  15
ENDBRANCH   1   3
TORSDOF 5
ENDMDL
MODEL 5
REMARK VINA RESULT:      -5.2     67.077     69.132
REMARK  5 active torsions:
REMARK  status: ('A' for Active; 'I' for Inactive)
REMARK    1  A    between atoms: O_1  and  C_7 
REMARK    2  A    between atoms: O_2  and  C_8 
REMARK    3  A    between atoms: O_3  and  C_9 
REMARK    4  A    between atoms: O_4  and  C_12 
REMARK    5  A    between atoms: C_6  and  C_12 
ROOT
HETATM    1  O   UNK     0      63.383 -15.057   9.142  0.00  0.00    -0.356 OA
HETATM    2  H   UNK     0      64.084 -14.981   8.471  0.00  0.00     0.218 HD
ENDROOT
BRANCH   1   3
HETATM    3  C   UNK     0      63.596 -14.106  10.095  0.00  0.00     0.132 A 
HETATM    4  C   UNK     0      63.870 -12.791   9.721  0.00  0.00     0.102 A 
HETATM    5  C   UNK     0      64.087 -11.818  10.696  0.00  0.00     0.057 A 
HETATM    6  C   UNK     0      64.030 -12.160  12.047  0.00  0.00     0.043 A 
HETATM    7  C   UNK     0      63.755 -13.476  12.422  0.00  0.00     0.057 A 
HETATM    8  C   UNK     0      63.539 -14.448  11.447  0.00  0.00     0.102 A 
BRANCH   4   9
HETATM    9  O   UNK     0      63.929 -12.445   8.404  0.00  0.00    -0.358 OA
HETATM   10  H   UNK     0      63.171 -12.839   7.938  0.00  0.00     0.217 HD
ENDBRANCH   4   9
BRANCH   6  11
HETATM   11  C   UNK     0      64.255 -11.145  13.064  0.00  0.00     0.176 C 
HETATM   12  O   UNK     0      65.252 -11.066  13.788  0.00  0.00    -0.646 OA
BRANCH  11  13
HETATM   13  O   UNK     0      63.227 -10.257  13.149  0.00  0.00    -0.773 OA
HETATM   14  H   UNK     0      63.260  -9.738  13.981  0.00  0.00     0.167 HD
ENDBRANCH  11  13
ENDBRANCH   6  11
BRANCH   8  15
HETATM   15  O   UNK     0      63.270 -15.729  11.827  0.00  0.00    -0.358 OA
HETATM   16  H   UNK     0      63.161 -15.745  12.793  0.00  0.00     0.217 HD
ENDBRANCH   8  15
ENDBRANCH   1   3
TORSDOF 5
ENDMDL
MODEL 6
REMARK VINA RESULT:      -5.2     55.977     56.826
REMARK  5 active torsions:
REMARK  status: ('A' for Active; 'I' for Inactive)
REMARK    1  A    between atoms: O_1  and  C_7 
REMARK    2  A    between atoms: O_2  and  C_8 
REMARK    3  A    between atoms: O_3  and  C_9 
REMARK    4  A    between atoms: O_4  and  C_12 
REMARK    5  A    between atoms: C_6  and  C_12 
ROOT
HETATM    1  O   UNK     0      45.924 -23.444  19.903  0.00  0.00    -0.356 OA
HETATM    2  H   UNK     0      46.841 -23.185  19.710  0.00  0.00     0.218 HD
ENDROOT
BRANCH   1   3
HETATM    3  C   UNK     0      45.927 -24.252  21.001  0.00  0.00     0.132 A 
HETATM    4  C   UNK     0      44.779 -24.964  21.347  0.00  0.00     0.102 A 
HETATM    5  C   UNK     0      44.782 -25.791  22.469  0.00  0.00     0.057 A 
HETATM    6  C   UNK     0      45.933 -25.907  23.248  0.00  0.00     0.043 A 
HETATM    7  C   UNK     0      47.082 -25.195  22.901  0.00  0.00     0.057 A 
HETATM    8  C   UNK     0      47.079 -24.368  21.779  0.00  0.00     0.102 A 
BRANCH   4   9
HETATM    9  O   UNK     0      43.647 -24.859  20.595  0.00  0.00    -0.358 OA
HETATM   10  H   UNK     0      43.012 -25.540  20.879  0.00  0.00     0.217 HD
ENDBRANCH   4   9
BRANCH   6  11
HETATM   11  C   UNK     0      45.937 -26.771  24.418  0.00  0.00     0.176 C 
HETATM   12  O   UNK     0      45.024 -27.534  24.746  0.00  0.00    -0.646 OA
BRANCH  11  13
HETATM   13  O   UNK     0      47.082 -26.656  25.145  0.00  0.00    -0.773 OA
HETATM   14  H   UNK     0      47.634 -25.903  24.841  0.00  0.00     0.167 HD
ENDBRANCH  11  13
ENDBRANCH   6  11
BRANCH   8  15
HETATM   15  O   UNK     0      48.209 -23.679  21.451  0.00  0.00    -0.358 OA
HETATM   16  H   UNK     0      48.012 -22.728  21.501  0.00  0.00     0.217 HD
ENDBRANCH   8  15
ENDBRANCH   1   3
TORSDOF 5
ENDMDL
MODEL 7
REMARK VINA RESULT:      -5.2     67.104     69.140
REMARK  5 active torsions:
REMARK  status: ('A' for Active; 'I' for Inactive)
REMARK    1  A    between atoms: O_1  and  C_7 
REMARK    2  A    between atoms: O_2  and  C_8 
REMARK    3  A    between atoms: O_3  and  C_9 
REMARK    4  A    between atoms: O_4  and  C_12 
REMARK    5  A    between atoms: C_6  and  C_12 
ROOT
HETATM    1  O   UNK     0      63.542 -15.118   9.181  0.00  0.00    -0.356 OA
HETATM    2  H   UNK     0      64.180 -14.972   8.461  0.00  0.00     0.218 HD
ENDROOT
BRANCH   1   3
HETATM    3  C   UNK     0      63.722 -14.144  10.118  0.00  0.00     0.132 A 
HETATM    4  C   UNK     0      63.542 -14.434  11.470  0.00  0.00     0.102 A 
HETATM    5  C   UNK     0      63.726 -13.439  12.428  0.00  0.00     0.057 A 
HETATM    6  C   UNK     0      64.091 -12.151  12.036  0.00  0.00     0.043 A 
HETATM    7  C   UNK     0      64.271 -11.860  10.683  0.00  0.00     0.057 A 
HETATM    8  C   UNK     0      64.087 -12.856   9.725  0.00  0.00     0.102 A 
BRANCH   4   9
HETATM    9  O   UNK     0      63.184 -15.688  11.866  0.00  0.00    -0.358 OA
HETATM   10  H   UNK     0      63.981 -16.245  11.915  0.00  0.00     0.217 HD
ENDBRANCH   4   9
BRANCH   6  11
HETATM   11  C   UNK     0      64.285 -11.113  13.036  0.00  0.00     0.176 C 
HETATM   12  O   UNK     0      65.288 -10.981  13.744  0.00  0.00    -0.646 OA
BRANCH  11  13
HETATM   13  O   UNK     0      63.220 -10.270  13.123  0.00  0.00    -0.773 OA
HETATM   14  H   UNK     0      62.875 -10.210  14.040  0.00  0.00     0.167 HD
ENDBRANCH  11  13
ENDBRANCH   6  11
BRANCH   8  15
HETATM   15  O   UNK     0      64.268 -12.559   8.407  0.00  0.00    -0.358 OA
HETATM   16  H   UNK     0      64.783 -11.735   8.348  0.00  0.00     0.217 HD
ENDBRANCH   8  15
ENDBRANCH   1   3
TORSDOF 5
ENDMDL
MODEL 8
REMARK VINA RESULT:      -5.1     15.837     16.624
REMARK  5 active torsions:
REMARK  status: ('A' for Active; 'I' for Inactive)
REMARK    1  A    between atoms: O_1  and  C_7 
REMARK    2  A    between atoms: O_2  and  C_8 
REMARK    3  A    between atoms: O_3  and  C_9 
REMARK    4  A    between atoms: O_4  and  C_12 
REMARK    5  A    between atoms: C_6  and  C_12 
ROOT
HETATM    1  O   UNK     0      28.357   1.193  49.850  0.00  0.00    -0.356 OA
HETATM    2  H   UNK     0      28.311   0.241  50.045  0.00  0.00     0.218 HD
ENDROOT
BRANCH   1   3
HETATM    3  C   UNK     0      29.500   1.689  50.402  0.00  0.00     0.132 A 
HETATM    4  C   UNK     0      29.674   3.068  50.526  0.00  0.00     0.102 A 
HETATM    5  C   UNK     0      30.843   3.576  51.091  0.00  0.00     0.057 A 
HETATM    6  C   UNK     0      31.839   2.707  51.533  0.00  0.00     0.043 A 
HETATM    7  C   UNK     0      31.666   1.328  51.410  0.00  0.00     0.057 A 
HETATM    8  C   UNK     0      30.497   0.819  50.844  0.00  0.00     0.102 A 
BRANCH   4   9
HETATM    9  O   UNK     0      28.708   3.928  50.097  0.00  0.00    -0.358 OA
HETATM   10  H   UNK     0      28.297   4.356  50.869  0.00  0.00     0.217 HD
ENDBRANCH   4   9
BRANCH   6  11
HETATM   11  C   UNK     0      33.058   3.237  52.124  0.00  0.00     0.176 C 
HETATM   12  O   UNK     0      33.717   2.691  53.015  0.00  0.00    -0.646 OA
BRANCH  11  13
HETATM   13  O   UNK     0      33.419   4.433  51.586  0.00  0.00    -0.773 OA
HETATM   14  H   UNK     0      32.878   5.172  51.939  0.00  0.00     0.167 HD
ENDBRANCH  11  13
ENDBRANCH   6  11
BRANCH   8  15
HETATM   15  O   UNK     0      30.339  -0.530  50.731  0.00  0.00    -0.358 OA
HETATM   16  H   UNK     0      30.951  -0.852  50.047  0.00  0.00     0.217 HD
ENDBRANCH   8  15
ENDBRANCH   1   3
TORSDOF 5
ENDMDL
MODEL 9
REMARK VINA RESULT:      -5.1      2.709      4.019
REMARK  5 active torsions:
REMARK  status: ('A' for Active; 'I' for Inactive)
REMARK    1  A    between atoms: O_1  and  C_7 
REMARK    2  A    between atoms: O_2  and  C_8 
REMARK    3  A    between atoms: O_3  and  C_9 
REMARK    4  A    between atoms: O_4  and  C_12 
REMARK    5  A    between atoms: C_6  and  C_12 
ROOT
HETATM    1  O   UNK     0      27.406   5.711  64.830  0.00  0.00    -0.356 OA
HETATM    2  H   UNK     0      26.971   5.830  65.692  0.00  0.00     0.218 HD
ENDROOT
BRANCH   1   3
HETATM    3  C   UNK     0      26.958   4.547  64.279  0.00  0.00     0.132 A 
HETATM    4  C   UNK     0      27.822   3.754  63.525  0.00  0.00     0.102 A 
HETATM    5  C   UNK     0      27.365   2.563  62.962  0.00  0.00     0.057 A 
HETATM    6  C   UNK     0      26.042   2.164  63.152  0.00  0.00     0.043 A 
HETATM    7  C   UNK     0      25.177   2.958  63.907  0.00  0.00     0.057 A 
HETATM    8  C   UNK     0      25.634   4.148  64.469  0.00  0.00     0.102 A 
BRANCH   4   9
HETATM    9  O   UNK     0      29.117   4.133  63.331  0.00  0.00    -0.358 OA
HETATM   10  H   UNK     0      29.491   3.622  62.592  0.00  0.00     0.217 HD
ENDBRANCH   4   9
BRANCH   6  11
HETATM   11  C   UNK     0      25.565   0.921  62.566  0.00  0.00     0.176 C 
HETATM   12  O   UNK     0      26.242  -0.099  62.406  0.00  0.00    -0.646 OA
BRANCH  11  13
HETATM   13  O   UNK     0      24.257   0.989  62.198  0.00  0.00    -0.773 OA
HETATM   14  H   UNK     0      23.655   0.834  62.958  0.00  0.00     0.167 HD
ENDBRANCH  11  13
ENDBRANCH   6  11
BRANCH   8  15
HETATM   15  O   UNK     0      24.780   4.913  65.206  0.00  0.00    -0.358 OA
HETATM   16  H   UNK     0      23.893   4.515  65.155  0.00  0.00     0.217 HD
ENDBRANCH   8  15
ENDBRANCH   1   3
TORSDOF 5
ENDMDL
