MODEL 1
REMARK VINA RESULT:      -7.1      0.000      0.000
REMARK  6 active torsions:
REMARK  status: ('A' for Active; 'I' for Inactive)
REMARK    1  A    between atoms: O_2  and  C_12 
REMARK    2  A    between atoms: O_3  and  C_14 
REMARK    3  A    between atoms: O_5  and  C_16 
REMARK    4  A    between atoms: O_6  and  C_20 
REMARK    5  A    between atoms: O_7  and  C_22 
REMARK    6  A    between atoms: C_10  and  C_11 
ROOT
HETATM    1  O   UNK     0      30.611   3.993  51.450  0.00  0.00    -0.306 OA
HETATM    2  O   UNK     0      31.440   4.360  47.477  0.00  0.00    -0.284 OA
HETATM    3  C   UNK     0      29.808   4.125  49.163  0.00  0.00     0.084 A 
HETATM    4  C   UNK     0      29.591   4.002  50.535  0.00  0.00     0.096 A 
HETATM    5  C   UNK     0      31.913   4.126  50.992  0.00  0.00     0.123 A 
HETATM    6  C   UNK     0      32.257   4.244  49.697  0.00  0.00     0.152 A 
HETATM    7  C   UNK     0      31.188   4.253  48.670  0.00  0.00     0.223 A 
HETATM    8  C   UNK     0      28.729   4.127  48.276  0.00  0.00     0.085 A 
HETATM    9  C   UNK     0      28.292   3.877  51.027  0.00  0.00     0.075 A 
HETATM   10  C   UNK     0      27.212   3.878  50.143  0.00  0.00     0.071 A 
HETATM   11  C   UNK     0      27.431   4.002  48.771  0.00  0.00     0.074 A 
ENDROOT
BRANCH   5  12
HETATM   12  C   UNK     0      32.909   4.102  52.077  0.00  0.00     0.004 A 
HETATM   13  C   UNK     0      33.373   5.297  52.626  0.00  0.00     0.053 A 
HETATM   14  C   UNK     0      34.317   5.274  53.653  0.00  0.00     0.099 A 
HETATM   15  C   UNK     0      34.796   4.054  54.132  0.00  0.00     0.098 A 
HETATM   16  C   UNK     0      34.331   2.858  53.584  0.00  0.00     0.040 A 
HETATM   17  C   UNK     0      33.388   2.882  52.557  0.00  0.00     0.017 A 
BRANCH  14  18
HETATM   18  O   UNK     0      34.765   6.447  54.180  0.00  0.00    -0.358 OA
HETATM   19  H   UNK     0      35.734   6.434  54.232  0.00  0.00     0.217 HD
ENDBRANCH  14  18
BRANCH  15  20
HETATM   20  O   UNK     0      35.716   4.018  55.137  0.00  0.00    -0.358 OA
HETATM   21  H   UNK     0      36.090   3.126  55.206  0.00  0.00     0.217 HD
ENDBRANCH  15  20
ENDBRANCH   5  12
BRANCH   6  22
HETATM   22  O   UNK     0      33.564   4.342  49.272  0.00  0.00    -0.355 OA
HETATM   23  H   UNK     0      33.969   5.148  49.630  0.00  0.00     0.218 HD
ENDBRANCH   6  22
BRANCH   8  24
HETATM   24  O   UNK     0      28.886   4.244  46.928  0.00  0.00    -0.360 OA
HETATM   25  H   UNK     0      29.450   3.533  46.588  0.00  0.00     0.217 HD
ENDBRANCH   8  24
BRANCH  10  26
HETATM   26  O   UNK     0      25.943   3.756  50.623  0.00  0.00    -0.361 OA
HETATM   27  H   UNK     0      25.398   3.298  49.959  0.00  0.00     0.217 HD
ENDBRANCH  10  26
TORSDOF 6
ENDMDL
MODEL 2
REMARK VINA RESULT:      -7.1     29.037     31.046
REMARK  6 active torsions:
REMARK  status: ('A' for Active; 'I' for Inactive)
REMARK    1  A    between atoms: O_2  and  C_12 
REMARK    2  A    between atoms: O_3  and  C_14 
REMARK    3  A    between atoms: O_5  and  C_16 
REMARK    4  A    between atoms: O_6  and  C_20 
REMARK    5  A    between atoms: O_7  and  C_22 
REMARK    6  A    between atoms: C_10  and  C_11 
ROOT
HETATM    1  O   UNK     0      56.689 -11.512  47.644  0.00  0.00    -0.306 OA
HETATM    2  O   UNK     0      60.713 -10.968  47.983  0.00  0.00    -0.284 OA
HETATM    3  C   UNK     0      58.670 -10.238  47.059  0.00  0.00     0.084 A 
HETATM    4  C   UNK     0      57.299 -10.478  46.984  0.00  0.00     0.096 A 
HETATM    5  C   UNK     0      57.467 -12.345  48.432  0.00  0.00     0.123 A 
HETATM    6  C   UNK     0      58.799 -12.227  48.583  0.00  0.00     0.152 A 
HETATM    7  C   UNK     0      59.504 -11.127  47.883  0.00  0.00     0.223 A 
HETATM    8  C   UNK     0      59.238  -9.169  46.362  0.00  0.00     0.085 A 
HETATM    9  C   UNK     0      56.488  -9.651  46.207  0.00  0.00     0.075 A 
HETATM   10  C   UNK     0      57.052  -8.582  45.509  0.00  0.00     0.071 A 
HETATM   11  C   UNK     0      58.424  -8.343  45.587  0.00  0.00     0.074 A 
ENDROOT
BRANCH   5  12
HETATM   12  C   UNK     0      56.688 -13.412  49.086  0.00  0.00     0.004 A 
HETATM   13  C   UNK     0      55.816 -13.100  50.129  0.00  0.00     0.053 A 
HETATM   14  C   UNK     0      55.078 -14.110  50.747  0.00  0.00     0.099 A 
HETATM   15  C   UNK     0      55.213 -15.432  50.321  0.00  0.00     0.098 A 
HETATM   16  C   UNK     0      56.084 -15.744  49.278  0.00  0.00     0.040 A 
HETATM   17  C   UNK     0      56.822 -14.734  48.659  0.00  0.00     0.017 A 
BRANCH  14  18
HETATM   18  O   UNK     0      54.232 -13.795  51.766  0.00  0.00    -0.358 OA
HETATM   19  H   UNK     0      54.740 -13.636  52.578  0.00  0.00     0.217 HD
ENDBRANCH  14  18
BRANCH  15  20
HETATM   20  O   UNK     0      54.496 -16.427  50.916  0.00  0.00    -0.358 OA
HETATM   21  H   UNK     0      54.599 -16.374  51.879  0.00  0.00     0.217 HD
ENDBRANCH  15  20
ENDBRANCH   5  12
BRANCH   6  22
HETATM   22  O   UNK     0      59.549 -13.093  49.349  0.00  0.00    -0.355 OA
HETATM   23  H   UNK     0      59.825 -12.654  50.170  0.00  0.00     0.218 HD
ENDBRANCH   6  22
BRANCH   8  24
HETATM   24  O   UNK     0      60.571  -8.891  46.402  0.00  0.00    -0.360 OA
HETATM   25  H   UNK     0      60.965  -9.232  47.219  0.00  0.00     0.217 HD
ENDBRANCH   8  24
BRANCH  10  26
HETATM   26  O   UNK     0      56.261  -7.773  44.751  0.00  0.00    -0.361 OA
HETATM   27  H   UNK     0      56.726  -7.565  43.923  0.00  0.00     0.217 HD
ENDBRANCH  10  26
TORSDOF 6
ENDMDL
MODEL 3
REMARK VINA RESULT:      -7.0     21.297     22.252
REMARK  6 active torsions:
REMARK  status: ('A' for Active; 'I' for Inactive)
REMARK    1  A    between atoms: O_2  and  C_12 
REMARK    2  A    between atoms: O_3  and  C_14 
REMARK    3  A    between atoms: O_5  and  C_16 
REMARK    4  A    between atoms: O_6  and  C_20 
REMARK    5  A    between atoms: O_7  and  C_22 
REMARK    6  A    between atoms: C_10  and  C_11 
ROOT
HETATM    1  O   UNK     0      38.757 -13.771  60.896  0.00  0.00    -0.306 OA
HETATM    2  O   UNK     0      36.893 -11.987  64.050  0.00  0.00    -0.284 OA
HETATM    3  C   UNK     0      36.696 -13.239  62.061  0.00  0.00     0.084 A 
HETATM    4  C   UNK     0      37.392 -13.827  61.007  0.00  0.00     0.096 A 
HETATM    5  C   UNK     0      39.475 -13.113  61.882  0.00  0.00     0.123 A 
HETATM    6  C   UNK     0      38.924 -12.497  62.945  0.00  0.00     0.152 A 
HETATM    7  C   UNK     0      37.450 -12.527  63.104  0.00  0.00     0.223 A 
HETATM    8  C   UNK     0      35.302 -13.326  62.121  0.00  0.00     0.085 A 
HETATM    9  C   UNK     0      36.698 -14.505  60.005  0.00  0.00     0.075 A 
HETATM   10  C   UNK     0      35.307 -14.595  60.062  0.00  0.00     0.071 A 
HETATM   11  C   UNK     0      34.611 -14.006  61.119  0.00  0.00     0.074 A 
ENDROOT
BRANCH   5  12
HETATM   12  C   UNK     0      40.929 -13.128  61.642  0.00  0.00     0.004 A 
HETATM   13  C   UNK     0      41.604 -14.342  61.521  0.00  0.00     0.053 A 
HETATM   14  C   UNK     0      42.980 -14.356  61.294  0.00  0.00     0.099 A 
HETATM   15  C   UNK     0      43.681 -13.155  61.187  0.00  0.00     0.098 A 
HETATM   16  C   UNK     0      43.006 -11.940  61.307  0.00  0.00     0.040 A 
HETATM   17  C   UNK     0      41.630 -11.926  61.534  0.00  0.00     0.017 A 
BRANCH  14  18
HETATM   18  O   UNK     0      43.629 -15.548  61.180  0.00  0.00    -0.358 OA
HETATM   19  H   UNK     0      44.535 -15.462  61.521  0.00  0.00     0.217 HD
ENDBRANCH  14  18
BRANCH  15  20
HETATM   20  O   UNK     0      45.025 -13.155  60.963  0.00  0.00    -0.358 OA
HETATM   21  H   UNK     0      45.256 -12.433  60.357  0.00  0.00     0.217 HD
ENDBRANCH  15  20
ENDBRANCH   5  12
BRANCH   6  22
HETATM   22  O   UNK     0      39.665 -11.823  63.891  0.00  0.00    -0.355 OA
HETATM   23  H   UNK     0      39.325 -10.918  63.992  0.00  0.00     0.218 HD
ENDBRANCH   6  22
BRANCH   8  24
HETATM   24  O   UNK     0      34.574 -12.770  63.130  0.00  0.00    -0.360 OA
HETATM   25  H   UNK     0      34.802 -13.176  63.979  0.00  0.00     0.217 HD
ENDBRANCH   8  24
BRANCH  10  26
HETATM   26  O   UNK     0      34.629 -15.257  59.085  0.00  0.00    -0.361 OA
HETATM   27  H   UNK     0      34.323 -14.614  58.422  0.00  0.00     0.217 HD
ENDBRANCH  10  26
TORSDOF 6
ENDMDL
MODEL 4
REMARK VINA RESULT:      -6.9     27.852     29.637
REMARK  6 active torsions:
REMARK  status: ('A' for Active; 'I' for Inactive)
REMARK    1  A    between atoms: O_2  and  C_12 
REMARK    2  A    between atoms: O_3  and  C_14 
REMARK    3  A    between atoms: O_5  and  C_16 
REMARK    4  A    between atoms: O_6  and  C_20 
REMARK    5  A    between atoms: O_7  and  C_22 
REMARK    6  A    between atoms: C_10  and  C_11 
ROOT
HETATM    1  O   UNK     0      26.214  11.233  22.742  0.00  0.00    -0.306 OA
HETATM    2  O   UNK     0      24.663  13.602  25.673  0.00  0.00    -0.284 OA
HETATM    3  C   UNK     0      24.569  11.560  24.496  0.00  0.00     0.084 A 
HETATM    4  C   UNK     0      25.144  10.799  23.480  0.00  0.00     0.096 A 
HETATM    5  C   UNK     0      26.754  12.478  23.027  0.00  0.00     0.123 A 
HETATM    6  C   UNK     0      26.288  13.312  23.975  0.00  0.00     0.152 A 
HETATM    7  C   UNK     0      25.129  12.886  24.796  0.00  0.00     0.223 A 
HETATM    8  C   UNK     0      23.478  11.065  25.216  0.00  0.00     0.085 A 
HETATM    9  C   UNK     0      24.630   9.538  23.176  0.00  0.00     0.075 A 
HETATM   10  C   UNK     0      23.541   9.042  23.893  0.00  0.00     0.071 A 
HETATM   11  C   UNK     0      22.967   9.804  24.910  0.00  0.00     0.074 A 
ENDROOT
BRANCH   5  12
HETATM   12  C   UNK     0      27.896  12.821  22.162  0.00  0.00     0.004 A 
HETATM   13  C   UNK     0      29.199  12.580  22.597  0.00  0.00     0.053 A 
HETATM   14  C   UNK     0      30.280  12.905  21.778  0.00  0.00     0.099 A 
HETATM   15  C   UNK     0      30.057  13.472  20.523  0.00  0.00     0.098 A 
HETATM   16  C   UNK     0      28.755  13.713  20.087  0.00  0.00     0.040 A 
HETATM   17  C   UNK     0      27.674  13.388  20.906  0.00  0.00     0.017 A 
BRANCH  14  18
HETATM   18  O   UNK     0      31.548  12.667  22.214  0.00  0.00    -0.358 OA
HETATM   19  H   UNK     0      31.880  13.442  22.697  0.00  0.00     0.217 HD
ENDBRANCH  14  18
BRANCH  15  20
HETATM   20  O   UNK     0      31.105  13.792  19.712  0.00  0.00    -0.358 OA
HETATM   21  H   UNK     0      31.749  13.066  19.707  0.00  0.00     0.217 HD
ENDBRANCH  15  20
ENDBRANCH   5  12
BRANCH   6  22
HETATM   22  O   UNK     0      26.827  14.558  24.212  0.00  0.00    -0.355 OA
HETATM   23  H   UNK     0      26.822  15.081  23.394  0.00  0.00     0.218 HD
ENDBRANCH   6  22
BRANCH   8  24
HETATM   24  O   UNK     0      22.880  11.768  26.218  0.00  0.00    -0.360 OA
HETATM   25  H   UNK     0      22.730  11.201  26.989  0.00  0.00     0.217 HD
ENDBRANCH   8  24
BRANCH  10  26
HETATM   26  O   UNK     0      23.038   7.811  23.597  0.00  0.00    -0.361 OA
HETATM   27  H   UNK     0      22.134   7.746  23.952  0.00  0.00     0.217 HD
ENDBRANCH  10  26
TORSDOF 6
ENDMDL
MODEL 5
REMARK VINA RESULT:      -6.9     18.181     20.166
REMARK  6 active torsions:
REMARK  status: ('A' for Active; 'I' for Inactive)
REMARK    1  A    between atoms: O_2  and  C_12 
REMARK    2  A    between atoms: O_3  and  C_14 
REMARK    3  A    between atoms: O_5  and  C_16 
REMARK    4  A    between atoms: O_6  and  C_20 
REMARK    5  A    between atoms: O_7  and  C_22 
REMARK    6  A    between atoms: C_10  and  C_11 
ROOT
HETATM    1  O   UNK     0      43.773  14.403  39.519  0.00  0.00    -0.306 OA
HETATM    2  O   UNK     0      39.753  13.915  39.070  0.00  0.00    -0.284 OA
HETATM    3  C   UNK     0      41.527  14.794  40.351  0.00  0.00     0.084 A 
HETATM    4  C   UNK     0      42.911  14.925  40.447  0.00  0.00     0.096 A 
HETATM    5  C   UNK     0      43.244  13.727  38.430  0.00  0.00     0.123 A 
HETATM    6  C   UNK     0      41.930  13.524  38.224  0.00  0.00     0.152 A 
HETATM    7  C   UNK     0      40.959  14.066  39.205  0.00  0.00     0.223 A 
HETATM    8  C   UNK     0      40.697  15.346  41.330  0.00  0.00     0.085 A 
HETATM    9  C   UNK     0      43.474  15.608  41.526  0.00  0.00     0.075 A 
HETATM   10  C   UNK     0      42.647  16.161  42.505  0.00  0.00     0.071 A 
HETATM   11  C   UNK     0      41.262  16.029  42.406  0.00  0.00     0.074 A 
ENDROOT
BRANCH   5  12
HETATM   12  C   UNK     0      44.277  13.219  37.511  0.00  0.00     0.004 A 
HETATM   13  C   UNK     0      44.851  11.966  37.729  0.00  0.00     0.053 A 
HETATM   14  C   UNK     0      45.829  11.485  36.858  0.00  0.00     0.099 A 
HETATM   15  C   UNK     0      46.232  12.257  35.768  0.00  0.00     0.098 A 
HETATM   16  C   UNK     0      45.658  13.509  35.549  0.00  0.00     0.040 A 
HETATM   17  C   UNK     0      44.680  13.990  36.420  0.00  0.00     0.017 A 
BRANCH  14  18
HETATM   18  O   UNK     0      46.384  10.262  37.082  0.00  0.00    -0.358 OA
HETATM   19  H   UNK     0      45.836   9.763  37.709  0.00  0.00     0.217 HD
ENDBRANCH  14  18
BRANCH  15  20
HETATM   20  O   UNK     0      47.185  11.797  34.909  0.00  0.00    -0.358 OA
HETATM   21  H   UNK     0      46.802  11.688  34.025  0.00  0.00     0.217 HD
ENDBRANCH  15  20
ENDBRANCH   5  12
BRANCH   6  22
HETATM   22  O   UNK     0      41.437  12.819  37.148  0.00  0.00    -0.355 OA
HETATM   23  H   UNK     0      40.649  12.318  37.414  0.00  0.00     0.218 HD
ENDBRANCH   6  22
BRANCH   8  24
HETATM   24  O   UNK     0      39.339  15.246  41.282  0.00  0.00    -0.360 OA
HETATM   25  H   UNK     0      38.942  16.104  41.068  0.00  0.00     0.217 HD
ENDBRANCH   8  24
BRANCH  10  26
HETATM   26  O   UNK     0      43.195  16.828  43.557  0.00  0.00    -0.361 OA
HETATM   27  H   UNK     0      44.124  16.555  43.654  0.00  0.00     0.217 HD
ENDBRANCH  10  26
TORSDOF 6
ENDMDL
MODEL 6
REMARK VINA RESULT:      -6.9      2.027      4.013
REMARK  6 active torsions:
REMARK  status: ('A' for Active; 'I' for Inactive)
REMARK    1  A    between atoms: O_2  and  C_12 
REMARK    2  A    between atoms: O_3  and  C_14 
REMARK    3  A    between atoms: O_5  and  C_16 
REMARK    4  A    between atoms: O_6  and  C_20 
REMARK    5  A    between atoms: O_7  and  C_22 
REMARK    6  A    between atoms: C_10  and  C_11 
ROOT
HETATM    1  O   UNK     0      29.499   4.089  48.568  0.00  0.00    -0.306 OA
HETATM    2  O   UNK     0      25.773   4.188  50.214  0.00  0.00    -0.284 OA
HETATM    3  C   UNK     0      27.124   4.510  48.308  0.00  0.00     0.084 A 
HETATM    4  C   UNK     0      28.422   4.457  47.805  0.00  0.00     0.096 A 
HETATM    5  C   UNK     0      29.285   3.741  49.893  0.00  0.00     0.123 A 
HETATM    6  C   UNK     0      28.084   3.758  50.501  0.00  0.00     0.152 A 
HETATM    7  C   UNK     0      26.890   4.155  49.716  0.00  0.00     0.223 A 
HETATM    8  C   UNK     0      26.064   4.894  47.483  0.00  0.00     0.085 A 
HETATM    9  C   UNK     0      28.669   4.791  46.473  0.00  0.00     0.075 A 
HETATM   10  C   UNK     0      27.613   5.175  45.647  0.00  0.00     0.071 A 
HETATM   11  C   UNK     0      26.313   5.226  46.151  0.00  0.00     0.074 A 
ENDROOT
BRANCH   5  12
HETATM   12  C   UNK     0      30.523   3.366  50.597  0.00  0.00     0.004 A 
HETATM   13  C   UNK     0      31.344   4.355  51.140  0.00  0.00     0.053 A 
HETATM   14  C   UNK     0      32.517   3.999  51.807  0.00  0.00     0.099 A 
HETATM   15  C   UNK     0      32.868   2.654  51.931  0.00  0.00     0.098 A 
HETATM   16  C   UNK     0      32.047   1.666  51.390  0.00  0.00     0.040 A 
HETATM   17  C   UNK     0      30.874   2.022  50.722  0.00  0.00     0.017 A 
BRANCH  14  18
HETATM   18  O   UNK     0      33.312   4.972  52.331  0.00  0.00    -0.358 OA
HETATM   19  H   UNK     0      33.735   5.473  51.614  0.00  0.00     0.217 HD
ENDBRANCH  14  18
BRANCH  15  20
HETATM   20  O   UNK     0      34.009   2.295  52.583  0.00  0.00    -0.358 OA
HETATM   21  H   UNK     0      33.958   1.361  52.842  0.00  0.00     0.217 HD
ENDBRANCH  15  20
ENDBRANCH   5  12
BRANCH   6  22
HETATM   22  O   UNK     0      27.909   3.439  51.830  0.00  0.00    -0.355 OA
HETATM   23  H   UNK     0      27.421   2.602  51.906  0.00  0.00     0.218 HD
ENDBRANCH   6  22
BRANCH   8  24
HETATM   24  O   UNK     0      24.776   4.962  47.924  0.00  0.00    -0.360 OA
HETATM   25  H   UNK     0      24.752   5.098  48.883  0.00  0.00     0.217 HD
ENDBRANCH   8  24
BRANCH  10  26
HETATM   26  O   UNK     0      27.852   5.500  44.346  0.00  0.00    -0.361 OA
HETATM   27  H   UNK     0      27.859   6.470  44.261  0.00  0.00     0.217 HD
ENDBRANCH  10  26
TORSDOF 6
ENDMDL
MODEL 7
REMARK VINA RESULT:      -6.6     21.387     23.580
REMARK  6 active torsions:
REMARK  status: ('A' for Active; 'I' for Inactive)
REMARK    1  A    between atoms: O_2  and  C_12 
REMARK    2  A    between atoms: O_3  and  C_14 
REMARK    3  A    between atoms: O_5  and  C_16 
REMARK    4  A    between atoms: O_6  and  C_20 
REMARK    5  A    between atoms: O_7  and  C_22 
REMARK    6  A    between atoms: C_10  and  C_11 
ROOT
HETATM    1  O   UNK     0      39.740 -14.769  61.578  0.00  0.00    -0.306 OA
HETATM    2  O   UNK     0      41.737 -11.240  61.983  0.00  0.00    -0.284 OA
HETATM    3  C   UNK     0      41.811 -13.519  61.382  0.00  0.00     0.084 A 
HETATM    4  C   UNK     0      41.073 -14.695  61.267  0.00  0.00     0.096 A 
HETATM    5  C   UNK     0      39.098 -13.621  62.014  0.00  0.00     0.123 A 
HETATM    6  C   UNK     0      39.697 -12.426  62.176  0.00  0.00     0.152 A 
HETATM    7  C   UNK     0      41.139 -12.300  61.857  0.00  0.00     0.223 A 
HETATM    8  C   UNK     0      43.169 -13.504  61.052  0.00  0.00     0.085 A 
HETATM    9  C   UNK     0      41.689 -15.865  60.821  0.00  0.00     0.075 A 
HETATM   10  C   UNK     0      43.044 -15.853  60.490  0.00  0.00     0.071 A 
HETATM   11  C   UNK     0      43.782 -14.675  60.606  0.00  0.00     0.074 A 
ENDROOT
BRANCH   5  12
HETATM   12  C   UNK     0      37.671 -13.837  62.313  0.00  0.00     0.004 A 
HETATM   13  C   UNK     0      37.284 -14.298  63.571  0.00  0.00     0.053 A 
HETATM   14  C   UNK     0      35.933 -14.503  63.854  0.00  0.00     0.099 A 
HETATM   15  C   UNK     0      34.970 -14.247  62.878  0.00  0.00     0.098 A 
HETATM   16  C   UNK     0      35.357 -13.786  61.620  0.00  0.00     0.040 A 
HETATM   17  C   UNK     0      36.708 -13.581  61.337  0.00  0.00     0.017 A 
BRANCH  14  18
HETATM   18  O   UNK     0      35.567 -14.955  65.085  0.00  0.00    -0.358 OA
HETATM   19  H   UNK     0      36.204 -15.619  65.394  0.00  0.00     0.217 HD
ENDBRANCH  14  18
BRANCH  15  20
HETATM   20  O   UNK     0      33.648 -14.441  63.143  0.00  0.00    -0.358 OA
HETATM   21  H   UNK     0      33.446 -14.141  64.043  0.00  0.00     0.217 HD
ENDBRANCH  15  20
ENDBRANCH   5  12
BRANCH   6  22
HETATM   22  O   UNK     0      39.036 -11.310  62.643  0.00  0.00    -0.355 OA
HETATM   23  H   UNK     0      38.556 -11.528  63.459  0.00  0.00     0.218 HD
ENDBRANCH   6  22
BRANCH   8  24
HETATM   24  O   UNK     0      43.936 -12.382  61.146  0.00  0.00    -0.360 OA
HETATM   25  H   UNK     0      43.510 -11.639  60.692  0.00  0.00     0.217 HD
ENDBRANCH   8  24
BRANCH  10  26
HETATM   26  O   UNK     0      43.646 -16.994  60.055  0.00  0.00    -0.361 OA
HETATM   27  H   UNK     0      43.990 -17.482  60.823  0.00  0.00     0.217 HD
ENDBRANCH  10  26
TORSDOF 6
ENDMDL
MODEL 8
REMARK VINA RESULT:      -6.6     27.603     30.654
REMARK  6 active torsions:
REMARK  status: ('A' for Active; 'I' for Inactive)
REMARK    1  A    between atoms: O_2  and  C_12 
REMARK    2  A    between atoms: O_3  and  C_14 
REMARK    3  A    between atoms: O_5  and  C_16 
REMARK    4  A    between atoms: O_6  and  C_20 
REMARK    5  A    between atoms: O_7  and  C_22 
REMARK    6  A    between atoms: C_10  and  C_11 
ROOT
HETATM    1  O   UNK     0      27.269  11.599  22.732  0.00  0.00    -0.306 OA
HETATM    2  O   UNK     0      26.300  12.674  18.923  0.00  0.00    -0.284 OA
HETATM    3  C   UNK     0      27.954  12.530  20.598  0.00  0.00     0.084 A 
HETATM    4  C   UNK     0      28.221  12.142  21.910  0.00  0.00     0.096 A 
HETATM    5  C   UNK     0      25.990  11.414  22.232  0.00  0.00     0.123 A 
HETATM    6  C   UNK     0      25.601  11.752  20.989  0.00  0.00     0.152 A 
HETATM    7  C   UNK     0      26.595  12.348  20.065  0.00  0.00     0.223 A 
HETATM    8  C   UNK     0      28.965  13.080  19.806  0.00  0.00     0.085 A 
HETATM    9  C   UNK     0      29.502  12.307  22.439  0.00  0.00     0.075 A 
HETATM   10  C   UNK     0      30.513  12.856  21.650  0.00  0.00     0.071 A 
HETATM   11  C   UNK     0      30.245  13.242  20.337  0.00  0.00     0.074 A 
ENDROOT
BRANCH   5  12
HETATM   12  C   UNK     0      25.067  10.822  23.216  0.00  0.00     0.004 A 
HETATM   13  C   UNK     0      24.486   9.578  22.968  0.00  0.00     0.053 A 
HETATM   14  C   UNK     0      23.612   9.018  23.901  0.00  0.00     0.099 A 
HETATM   15  C   UNK     0      23.321   9.702  25.082  0.00  0.00     0.098 A 
HETATM   16  C   UNK     0      23.903  10.944  25.330  0.00  0.00     0.040 A 
HETATM   17  C   UNK     0      24.776  11.505  24.398  0.00  0.00     0.017 A 
BRANCH  14  18
HETATM   18  O   UNK     0      23.049   7.805  23.647  0.00  0.00    -0.358 OA
HETATM   19  H   UNK     0      23.510   7.376  22.909  0.00  0.00     0.217 HD
ENDBRANCH  14  18
BRANCH  15  20
HETATM   20  O   UNK     0      22.471   9.164  26.001  0.00  0.00    -0.358 OA
HETATM   21  H   UNK     0      22.976   8.846  26.767  0.00  0.00     0.217 HD
ENDBRANCH  15  20
ENDBRANCH   5  12
BRANCH   6  22
HETATM   22  O   UNK     0      24.311  11.585  20.532  0.00  0.00    -0.355 OA
HETATM   23  H   UNK     0      23.691  11.610  21.279  0.00  0.00     0.218 HD
ENDBRANCH   6  22
BRANCH   8  24
HETATM   24  O   UNK     0      28.757  13.475  18.518  0.00  0.00    -0.360 OA
HETATM   25  H   UNK     0      29.594  13.497  18.030  0.00  0.00     0.217 HD
ENDBRANCH   8  24
BRANCH  10  26
HETATM   26  O   UNK     0      31.764  13.016  22.166  0.00  0.00    -0.361 OA
HETATM   27  H   UNK     0      31.756  12.748  23.101  0.00  0.00     0.217 HD
ENDBRANCH  10  26
TORSDOF 6
ENDMDL
MODEL 9
REMARK VINA RESULT:      -6.5     43.639     45.651
REMARK  6 active torsions:
REMARK  status: ('A' for Active; 'I' for Inactive)
REMARK    1  A    between atoms: O_2  and  C_12 
REMARK    2  A    between atoms: O_3  and  C_14 
REMARK    3  A    between atoms: O_5  and  C_16 
REMARK    4  A    between atoms: O_6  and  C_20 
REMARK    5  A    between atoms: O_7  and  C_22 
REMARK    6  A    between atoms: C_10  and  C_11 
ROOT
HETATM    1  O   UNK     0      44.545 -25.933  20.338  0.00  0.00    -0.306 OA
HETATM    2  O   UNK     0      48.305 -24.396  20.014  0.00  0.00    -0.284 OA
HETATM    3  C   UNK     0      46.681 -25.430  21.375  0.00  0.00     0.084 A 
HETATM    4  C   UNK     0      45.384 -25.939  21.421  0.00  0.00     0.096 A 
HETATM    5  C   UNK     0      45.012 -25.411  19.141  0.00  0.00     0.123 A 
HETATM    6  C   UNK     0      46.238 -24.882  18.967  0.00  0.00     0.152 A 
HETATM    7  C   UNK     0      47.178 -24.862  20.113  0.00  0.00     0.223 A 
HETATM    8  C   UNK     0      47.491 -25.461  22.513  0.00  0.00     0.085 A 
HETATM    9  C   UNK     0      44.889 -26.480  22.608  0.00  0.00     0.075 A 
HETATM   10  C   UNK     0      45.696 -26.513  23.746  0.00  0.00     0.071 A 
HETATM   11  C   UNK     0      46.993 -26.004  23.698  0.00  0.00     0.074 A 
ENDROOT
BRANCH   5  12
HETATM   12  C   UNK     0      44.013 -25.467  18.060  0.00  0.00     0.004 A 
HETATM   13  C   UNK     0      43.090 -24.432  17.909  0.00  0.00     0.053 A 
HETATM   14  C   UNK     0      42.144 -24.485  16.884  0.00  0.00     0.099 A 
HETATM   15  C   UNK     0      42.122 -25.573  16.012  0.00  0.00     0.098 A 
HETATM   16  C   UNK     0      43.046 -26.608  16.163  0.00  0.00     0.040 A 
HETATM   17  C   UNK     0      43.991 -26.555  17.187  0.00  0.00     0.017 A 
BRANCH  14  18
HETATM   18  O   UNK     0      41.246 -23.470  16.747  0.00  0.00    -0.358 OA
HETATM   19  H   UNK     0      41.158 -22.994  17.589  0.00  0.00     0.217 HD
ENDBRANCH  14  18
BRANCH  15  20
HETATM   20  O   UNK     0      41.205 -25.635  15.006  0.00  0.00    -0.358 OA
HETATM   21  H   UNK     0      40.679 -24.820  14.991  0.00  0.00     0.217 HD
ENDBRANCH  15  20
ENDBRANCH   5  12
BRANCH   6  22
HETATM   22  O   UNK     0      46.660 -24.341  17.772  0.00  0.00    -0.355 OA
HETATM   23  H   UNK     0      47.494 -24.757  17.498  0.00  0.00     0.218 HD
ENDBRANCH   6  22
BRANCH   8  24
HETATM   24  O   UNK     0      48.765 -24.977  22.522  0.00  0.00    -0.360 OA
HETATM   25  H   UNK     0      49.405 -25.703  22.478  0.00  0.00     0.217 HD
ENDBRANCH   8  24
BRANCH  10  26
HETATM   26  O   UNK     0      45.213 -27.042  24.904  0.00  0.00    -0.361 OA
HETATM   27  H   UNK     0      45.499 -26.484  25.648  0.00  0.00     0.217 HD
ENDBRANCH  10  26
TORSDOF 6
ENDMDL
