MODEL 1
REMARK VINA RESULT:      -6.7      0.000      0.000
REMARK  5 active torsions:
REMARK  status: ('A' for Active; 'I' for Inactive)
REMARK    1  A    between atoms: O_2  and  C_11 
REMARK    2  A    between atoms: O_3  and  C_13 
REMARK    3  A    between atoms: O_5  and  C_15 
REMARK    4  A    between atoms: O_6  and  C_21 
REMARK    5  A    between atoms: C_9  and  C_12 
ROOT
HETATM    1  O   UNK     0      18.007  28.994 -12.682  0.00  0.00    -0.306 OA
HETATM    2  O   UNK     0      15.184  29.406 -15.592  0.00  0.00    -0.284 OA
HETATM    3  C   UNK     0      17.074  30.301 -14.503  0.00  0.00     0.084 A 
HETATM    4  C   UNK     0      18.009  30.101 -13.489  0.00  0.00     0.096 A 
HETATM    5  C   UNK     0      17.038  28.025 -12.892  0.00  0.00     0.123 A 
HETATM    6  C   UNK     0      16.035  29.283 -14.722  0.00  0.00     0.223 A 
HETATM    7  C   UNK     0      16.074  28.101 -13.828  0.00  0.00     0.152 A 
HETATM    8  C   UNK     0      17.126  31.451 -15.294  0.00  0.00     0.085 A 
HETATM    9  C   UNK     0      19.003  31.054 -13.261  0.00  0.00     0.075 A 
HETATM   10  C   UNK     0      19.059  32.203 -14.048  0.00  0.00     0.071 A 
HETATM   11  C   UNK     0      18.122  32.401 -15.064  0.00  0.00     0.074 A 
ENDROOT
BRANCH   5  12
HETATM   12  C   UNK     0      17.148  26.891 -11.958  0.00  0.00     0.001 A 
HETATM   13  C   UNK     0      17.984  25.816 -12.260  0.00  0.00     0.017 A 
HETATM   14  C   UNK     0      18.088  24.743 -11.375  0.00  0.00     0.037 A 
HETATM   15  C   UNK     0      17.356  24.743 -10.189  0.00  0.00     0.065 A 
HETATM   16  C   UNK     0      16.519  25.819  -9.886  0.00  0.00     0.037 A 
HETATM   17  C   UNK     0      16.415  26.892 -10.770  0.00  0.00     0.017 A 
BRANCH  15  18
HETATM   18  O   UNK     0      17.458  23.697  -9.325  0.00  0.00    -0.361 OA
HETATM   19  H   UNK     0      17.986  22.994  -9.743  0.00  0.00     0.217 HD
ENDBRANCH  15  18
ENDBRANCH   5  12
BRANCH   7  20
HETATM   20  O   UNK     0      15.104  27.134 -13.989  0.00  0.00    -0.355 OA
HETATM   21  H   UNK     0      15.377  26.505 -14.677  0.00  0.00     0.218 HD
ENDBRANCH   7  20
BRANCH   8  22
HETATM   22  O   UNK     0      16.235  31.694 -16.296  0.00  0.00    -0.360 OA
HETATM   23  H   UNK     0      16.301  32.614 -16.594  0.00  0.00     0.217 HD
ENDBRANCH   8  22
BRANCH  10  24
HETATM   24  O   UNK     0      20.028  33.134 -13.828  0.00  0.00    -0.361 OA
HETATM   25  H   UNK     0      20.814  32.900 -14.350  0.00  0.00     0.217 HD
ENDBRANCH  10  24
TORSDOF 5
ENDMDL
MODEL 2
REMARK VINA RESULT:      -6.6      1.939      6.391
REMARK  5 active torsions:
REMARK  status: ('A' for Active; 'I' for Inactive)
REMARK    1  A    between atoms: O_2  and  C_11 
REMARK    2  A    between atoms: O_3  and  C_13 
REMARK    3  A    between atoms: O_5  and  C_15 
REMARK    4  A    between atoms: O_6  and  C_21 
REMARK    5  A    between atoms: C_9  and  C_12 
ROOT
HETATM    1  O   UNK     0      17.655  26.874 -12.222  0.00  0.00    -0.306 OA
HETATM    2  O   UNK     0      14.565  25.958 -14.716  0.00  0.00    -0.284 OA
HETATM    3  C   UNK     0      16.234  25.188 -13.238  0.00  0.00     0.084 A 
HETATM    4  C   UNK     0      17.282  25.567 -12.402  0.00  0.00     0.096 A 
HETATM    5  C   UNK     0      16.950  27.861 -12.893  0.00  0.00     0.123 A 
HETATM    6  C   UNK     0      15.491  26.230 -13.963  0.00  0.00     0.223 A 
HETATM    7  C   UNK     0      15.927  27.629 -13.735  0.00  0.00     0.152 A 
HETATM    8  C   UNK     0      15.899  23.839 -13.383  0.00  0.00     0.085 A 
HETATM    9  C   UNK     0      18.003  24.597 -11.705  0.00  0.00     0.075 A 
HETATM   10  C   UNK     0      17.673  23.250 -11.846  0.00  0.00     0.071 A 
HETATM   11  C   UNK     0      16.622  22.872 -12.683  0.00  0.00     0.074 A 
ENDROOT
BRANCH   5  12
HETATM   12  C   UNK     0      17.453  29.217 -12.613  0.00  0.00     0.001 A 
HETATM   13  C   UNK     0      16.904  29.963 -11.569  0.00  0.00     0.017 A 
HETATM   14  C   UNK     0      17.382  31.247 -11.303  0.00  0.00     0.037 A 
HETATM   15  C   UNK     0      18.405  31.785 -12.081  0.00  0.00     0.065 A 
HETATM   16  C   UNK     0      18.955  31.040 -13.125  0.00  0.00     0.037 A 
HETATM   17  C   UNK     0      18.478  29.756 -13.391  0.00  0.00     0.017 A 
BRANCH  15  18
HETATM   18  O   UNK     0      18.871  33.037 -11.822  0.00  0.00    -0.361 OA
HETATM   19  H   UNK     0      19.724  32.967 -11.361  0.00  0.00     0.217 HD
ENDBRANCH  15  18
ENDBRANCH   5  12
BRANCH   7  20
HETATM   20  O   UNK     0      15.267  28.632 -14.413  0.00  0.00    -0.355 OA
HETATM   21  H   UNK     0      14.344  28.679 -14.115  0.00  0.00     0.218 HD
ENDBRANCH   7  20
BRANCH   8  22
HETATM   22  O   UNK     0      14.885  23.417 -14.188  0.00  0.00    -0.360 OA
HETATM   23  H   UNK     0      15.228  23.139 -15.051  0.00  0.00     0.217 HD
ENDBRANCH   8  22
BRANCH  10  24
HETATM   24  O   UNK     0      18.375  22.302 -11.167  0.00  0.00    -0.361 OA
HETATM   25  H   UNK     0      18.170  21.429 -11.542  0.00  0.00     0.217 HD
ENDBRANCH  10  24
TORSDOF 5
ENDMDL
MODEL 3
REMARK VINA RESULT:      -6.5      1.771      6.932
REMARK  5 active torsions:
REMARK  status: ('A' for Active; 'I' for Inactive)
REMARK    1  A    between atoms: O_2  and  C_11 
REMARK    2  A    between atoms: O_3  and  C_13 
REMARK    3  A    between atoms: O_5  and  C_15 
REMARK    4  A    between atoms: O_6  and  C_21 
REMARK    5  A    between atoms: C_9  and  C_12 
ROOT
HETATM    1  O   UNK     0      17.560  26.892 -12.480  0.00  0.00    -0.306 OA
HETATM    2  O   UNK     0      15.188  27.711  -9.270  0.00  0.00    -0.284 OA
HETATM    3  C   UNK     0      16.508  26.136 -10.427  0.00  0.00     0.084 A 
HETATM    4  C   UNK     0      17.308  25.920 -11.547  0.00  0.00     0.096 A 
HETATM    5  C   UNK     0      17.004  28.148 -12.294  0.00  0.00     0.123 A 
HETATM    6  C   UNK     0      15.904  27.463 -10.231  0.00  0.00     0.223 A 
HETATM    7  C   UNK     0      16.208  28.483 -11.263  0.00  0.00     0.152 A 
HETATM    8  C   UNK     0      16.285  25.106  -9.509  0.00  0.00     0.085 A 
HETATM    9  C   UNK     0      17.891  24.670 -11.756  0.00  0.00     0.075 A 
HETATM   10  C   UNK     0      17.671  23.639 -10.843  0.00  0.00     0.071 A 
HETATM   11  C   UNK     0      16.870  23.857  -9.721  0.00  0.00     0.074 A 
ENDROOT
BRANCH   5  12
HETATM   12  C   UNK     0      17.353  29.096 -13.367  0.00  0.00     0.001 A 
HETATM   13  C   UNK     0      16.552  29.186 -14.505  0.00  0.00     0.017 A 
HETATM   14  C   UNK     0      16.881  30.085 -15.520  0.00  0.00     0.037 A 
HETATM   15  C   UNK     0      18.012  30.891 -15.398  0.00  0.00     0.065 A 
HETATM   16  C   UNK     0      18.813  30.801 -14.259  0.00  0.00     0.037 A 
HETATM   17  C   UNK     0      18.484  29.903 -13.243  0.00  0.00     0.017 A 
BRANCH  15  18
HETATM   18  O   UNK     0      18.333  31.768 -16.387  0.00  0.00    -0.361 OA
HETATM   19  H   UNK     0      17.708  32.513 -16.364  0.00  0.00     0.217 HD
ENDBRANCH  15  18
ENDBRANCH   5  12
BRANCH   7  20
HETATM   20  O   UNK     0      15.643  29.734 -11.124  0.00  0.00    -0.355 OA
HETATM   21  H   UNK     0      15.470  29.915 -10.186  0.00  0.00     0.218 HD
ENDBRANCH   7  20
BRANCH   8  22
HETATM   22  O   UNK     0      15.511  25.266  -8.400  0.00  0.00    -0.360 OA
HETATM   23  H   UNK     0      14.600  25.485  -8.649  0.00  0.00     0.217 HD
ENDBRANCH   8  22
BRANCH  10  24
HETATM   24  O   UNK     0      18.239  22.418 -11.045  0.00  0.00    -0.361 OA
HETATM   25  H   UNK     0      18.951  22.290 -10.396  0.00  0.00     0.217 HD
ENDBRANCH  10  24
TORSDOF 5
ENDMDL
MODEL 4
REMARK VINA RESULT:      -6.3      2.680      4.194
REMARK  5 active torsions:
REMARK  status: ('A' for Active; 'I' for Inactive)
REMARK    1  A    between atoms: O_2  and  C_11 
REMARK    2  A    between atoms: O_3  and  C_13 
REMARK    3  A    between atoms: O_5  and  C_15 
REMARK    4  A    between atoms: O_6  and  C_21 
REMARK    5  A    between atoms: C_9  and  C_12 
ROOT
HETATM    1  O   UNK     0      16.906  30.206 -11.534  0.00  0.00    -0.306 OA
HETATM    2  O   UNK     0      20.063  31.953 -13.429  0.00  0.00    -0.284 OA
HETATM    3  C   UNK     0      18.451  32.070 -11.712  0.00  0.00     0.084 A 
HETATM    4  C   UNK     0      17.375  31.422 -11.109  0.00  0.00     0.096 A 
HETATM    5  C   UNK     0      17.538  29.591 -12.603  0.00  0.00     0.123 A 
HETATM    6  C   UNK     0      19.117  31.429 -12.855  0.00  0.00     0.223 A 
HETATM    7  C   UNK     0      18.578  30.114 -13.278  0.00  0.00     0.152 A 
HETATM    8  C   UNK     0      18.885  33.310 -11.234  0.00  0.00     0.085 A 
HETATM    9  C   UNK     0      16.726  32.010 -10.023  0.00  0.00     0.075 A 
HETATM   10  C   UNK     0      17.155  33.247  -9.544  0.00  0.00     0.071 A 
HETATM   11  C   UNK     0      18.233  33.896 -10.148  0.00  0.00     0.074 A 
ENDROOT
BRANCH   5  12
HETATM   12  C   UNK     0      16.936  28.294 -12.958  0.00  0.00     0.001 A 
HETATM   13  C   UNK     0      17.465  27.113 -12.438  0.00  0.00     0.017 A 
HETATM   14  C   UNK     0      16.894  25.885 -12.773  0.00  0.00     0.037 A 
HETATM   15  C   UNK     0      15.795  25.838 -13.629  0.00  0.00     0.065 A 
HETATM   16  C   UNK     0      15.265  27.019 -14.151  0.00  0.00     0.037 A 
HETATM   17  C   UNK     0      15.836  28.247 -13.815  0.00  0.00     0.017 A 
BRANCH  15  18
HETATM   18  O   UNK     0      15.238  24.640 -13.956  0.00  0.00    -0.361 OA
HETATM   19  H   UNK     0      14.947  24.195 -13.142  0.00  0.00     0.217 HD
ENDBRANCH  15  18
ENDBRANCH   5  12
BRANCH   7  20
HETATM   20  O   UNK     0      19.164  29.491 -14.359  0.00  0.00    -0.355 OA
HETATM   21  H   UNK     0      18.927  29.957 -15.177  0.00  0.00     0.218 HD
ENDBRANCH   7  20
BRANCH   8  22
HETATM   22  O   UNK     0      19.930  33.985 -11.789  0.00  0.00    -0.360 OA
HETATM   23  H   UNK     0      20.713  33.925 -11.221  0.00  0.00     0.217 HD
ENDBRANCH   8  22
BRANCH  10  24
HETATM   24  O   UNK     0      16.523  33.824  -8.485  0.00  0.00    -0.361 OA
HETATM   25  H   UNK     0      15.563  33.717  -8.594  0.00  0.00     0.217 HD
ENDBRANCH  10  24
TORSDOF 5
ENDMDL
MODEL 5
REMARK VINA RESULT:      -6.2      1.054      1.685
REMARK  5 active torsions:
REMARK  status: ('A' for Active; 'I' for Inactive)
REMARK    1  A    between atoms: O_2  and  C_11 
REMARK    2  A    between atoms: O_3  and  C_13 
REMARK    3  A    between atoms: O_5  and  C_15 
REMARK    4  A    between atoms: O_6  and  C_21 
REMARK    5  A    between atoms: C_9  and  C_12 
ROOT
HETATM    1  O   UNK     0      18.336  29.860 -12.675  0.00  0.00    -0.306 OA
HETATM    2  O   UNK     0      16.225  30.705 -16.056  0.00  0.00    -0.284 OA
HETATM    3  C   UNK     0      17.962  31.313 -14.582  0.00  0.00     0.084 A 
HETATM    4  C   UNK     0      18.643  30.970 -13.417  0.00  0.00     0.096 A 
HETATM    5  C   UNK     0      17.310  29.037 -13.111  0.00  0.00     0.123 A 
HETATM    6  C   UNK     0      16.863  30.451 -15.043  0.00  0.00     0.223 A 
HETATM    7  C   UNK     0      16.568  29.260 -14.211  0.00  0.00     0.152 A 
HETATM    8  C   UNK     0      18.320  32.459 -15.297  0.00  0.00     0.085 A 
HETATM    9  C   UNK     0      19.688  31.773 -12.958  0.00  0.00     0.075 A 
HETATM   10  C   UNK     0      20.049  32.917 -13.668  0.00  0.00     0.071 A 
HETATM   11  C   UNK     0      19.366  33.260 -14.836  0.00  0.00     0.074 A 
ENDROOT
BRANCH   5  12
HETATM   12  C   UNK     0      17.082  27.882 -12.224  0.00  0.00     0.001 A 
HETATM   13  C   UNK     0      16.193  27.988 -11.154  0.00  0.00     0.017 A 
HETATM   14  C   UNK     0      15.977  26.894 -10.316  0.00  0.00     0.037 A 
HETATM   15  C   UNK     0      16.651  25.696 -10.545  0.00  0.00     0.065 A 
HETATM   16  C   UNK     0      17.540  25.589 -11.615  0.00  0.00     0.037 A 
HETATM   17  C   UNK     0      17.756  26.682 -12.454  0.00  0.00     0.017 A 
BRANCH  15  18
HETATM   18  O   UNK     0      16.440  24.629  -9.727  0.00  0.00    -0.361 OA
HETATM   19  H   UNK     0      16.591  24.903  -8.807  0.00  0.00     0.217 HD
ENDBRANCH  15  18
ENDBRANCH   5  12
BRANCH   7  20
HETATM   20  O   UNK     0      15.532  28.438 -14.600  0.00  0.00    -0.355 OA
HETATM   21  H   UNK     0      15.426  28.475 -15.565  0.00  0.00     0.218 HD
ENDBRANCH   7  20
BRANCH   8  22
HETATM   22  O   UNK     0      17.685  32.839 -16.441  0.00  0.00    -0.360 OA
HETATM   23  H   UNK     0      16.910  32.280 -16.602  0.00  0.00     0.217 HD
ENDBRANCH   8  22
BRANCH  10  24
HETATM   24  O   UNK     0      21.068  33.703 -13.223  0.00  0.00    -0.361 OA
HETATM   25  H   UNK     0      20.811  34.102 -12.374  0.00  0.00     0.217 HD
ENDBRANCH  10  24
TORSDOF 5
ENDMDL
MODEL 6
REMARK VINA RESULT:      -6.1      2.692      4.745
REMARK  5 active torsions:
REMARK  status: ('A' for Active; 'I' for Inactive)
REMARK    1  A    between atoms: O_2  and  C_11 
REMARK    2  A    between atoms: O_3  and  C_13 
REMARK    3  A    between atoms: O_5  and  C_15 
REMARK    4  A    between atoms: O_6  and  C_21 
REMARK    5  A    between atoms: C_9  and  C_12 
ROOT
HETATM    1  O   UNK     0      20.169  31.378 -12.277  0.00  0.00    -0.306 OA
HETATM    2  O   UNK     0      19.511  34.096 -15.241  0.00  0.00    -0.284 OA
HETATM    3  C   UNK     0      20.950  33.287 -13.557  0.00  0.00     0.084 A 
HETATM    4  C   UNK     0      21.113  32.331 -12.557  0.00  0.00     0.096 A 
HETATM    5  C   UNK     0      19.007  31.357 -13.033  0.00  0.00     0.123 A 
HETATM    6  C   UNK     0      19.713  33.279 -14.353  0.00  0.00     0.223 A 
HETATM    7  C   UNK     0      18.723  32.227 -14.019  0.00  0.00     0.152 A 
HETATM    8  C   UNK     0      21.948  34.236 -13.796  0.00  0.00     0.085 A 
HETATM    9  C   UNK     0      22.277  32.320 -11.787  0.00  0.00     0.075 A 
HETATM   10  C   UNK     0      23.275  33.265 -12.021  0.00  0.00     0.071 A 
HETATM   11  C   UNK     0      23.111  34.221 -13.025  0.00  0.00     0.074 A 
ENDROOT
BRANCH   5  12
HETATM   12  C   UNK     0      18.079  30.286 -12.630  0.00  0.00     0.001 A 
HETATM   13  C   UNK     0      18.146  29.036 -13.246  0.00  0.00     0.017 A 
HETATM   14  C   UNK     0      17.268  28.022 -12.864  0.00  0.00     0.037 A 
HETATM   15  C   UNK     0      16.323  28.257 -11.867  0.00  0.00     0.065 A 
HETATM   16  C   UNK     0      16.255  29.507 -11.250  0.00  0.00     0.037 A 
HETATM   17  C   UNK     0      17.133  30.521 -11.632  0.00  0.00     0.017 A 
BRANCH  15  18
HETATM   18  O   UNK     0      15.466  27.267 -11.494  0.00  0.00    -0.361 OA
HETATM   19  H   UNK     0      15.979  26.465 -11.296  0.00  0.00     0.217 HD
ENDBRANCH  15  18
ENDBRANCH   5  12
BRANCH   7  20
HETATM   20  O   UNK     0      17.542  32.200 -14.730  0.00  0.00    -0.355 OA
HETATM   21  H   UNK     0      16.799  32.026 -14.129  0.00  0.00     0.218 HD
ENDBRANCH   7  20
BRANCH   8  22
HETATM   22  O   UNK     0      21.837  35.192 -14.761  0.00  0.00    -0.360 OA
HETATM   23  H   UNK     0      22.142  36.049 -14.427  0.00  0.00     0.217 HD
ENDBRANCH   8  22
BRANCH  10  24
HETATM   24  O   UNK     0      24.411  33.256 -11.272  0.00  0.00    -0.361 OA
HETATM   25  H   UNK     0      24.169  33.286 -10.331  0.00  0.00     0.217 HD
ENDBRANCH  10  24
TORSDOF 5
ENDMDL
MODEL 7
REMARK VINA RESULT:      -6.0      1.762      6.048
REMARK  5 active torsions:
REMARK  status: ('A' for Active; 'I' for Inactive)
REMARK    1  A    between atoms: O_2  and  C_11 
REMARK    2  A    between atoms: O_3  and  C_13 
REMARK    3  A    between atoms: O_5  and  C_15 
REMARK    4  A    between atoms: O_6  and  C_21 
REMARK    5  A    between atoms: C_9  and  C_12 
ROOT
HETATM    1  O   UNK     0      17.874  28.373 -12.525  0.00  0.00    -0.306 OA
HETATM    2  O   UNK     0      14.504  28.674 -14.796  0.00  0.00    -0.284 OA
HETATM    3  C   UNK     0      15.995  27.285 -13.610  0.00  0.00     0.084 A 
HETATM    4  C   UNK     0      17.155  27.249 -12.840  0.00  0.00     0.096 A 
HETATM    5  C   UNK     0      17.418  29.599 -12.983  0.00  0.00     0.123 A 
HETATM    6  C   UNK     0      15.513  28.581 -14.111  0.00  0.00     0.223 A 
HETATM    7  C   UNK     0      16.320  29.769 -13.742  0.00  0.00     0.152 A 
HETATM    8  C   UNK     0      15.304  26.105 -13.900  0.00  0.00     0.085 A 
HETATM    9  C   UNK     0      17.633  26.031 -12.355  0.00  0.00     0.075 A 
HETATM   10  C   UNK     0      16.947  24.852 -12.641  0.00  0.00     0.071 A 
HETATM   11  C   UNK     0      15.784  24.889 -13.412  0.00  0.00     0.074 A 
ENDROOT
BRANCH   5  12
HETATM   12  C   UNK     0      18.281  30.722 -12.576  0.00  0.00     0.001 A 
HETATM   13  C   UNK     0      18.007  31.421 -11.400  0.00  0.00     0.017 A 
HETATM   14  C   UNK     0      18.825  32.483 -11.014  0.00  0.00     0.037 A 
HETATM   15  C   UNK     0      19.915  32.847 -11.803  0.00  0.00     0.065 A 
HETATM   16  C   UNK     0      20.189  32.148 -12.979  0.00  0.00     0.037 A 
HETATM   17  C   UNK     0      19.372  31.085 -13.365  0.00  0.00     0.017 A 
BRANCH  15  18
HETATM   18  O   UNK     0      20.713  33.883 -11.426  0.00  0.00    -0.361 OA
HETATM   19  H   UNK     0      20.868  33.829 -10.467  0.00  0.00     0.217 HD
ENDBRANCH  15  18
ENDBRANCH   5  12
BRANCH   7  20
HETATM   20  O   UNK     0      15.912  31.000 -14.209  0.00  0.00    -0.355 OA
HETATM   21  H   UNK     0      16.651  31.629 -14.172  0.00  0.00     0.218 HD
ENDBRANCH   7  20
BRANCH   8  22
HETATM   22  O   UNK     0      14.166  26.086 -14.648  0.00  0.00    -0.360 OA
HETATM   23  H   UNK     0      14.065  26.917 -15.136  0.00  0.00     0.217 HD
ENDBRANCH   8  22
BRANCH  10  24
HETATM   24  O   UNK     0      17.411  23.662 -12.170  0.00  0.00    -0.361 OA
HETATM   25  H   UNK     0      17.488  23.715 -11.202  0.00  0.00     0.217 HD
ENDBRANCH  10  24
TORSDOF 5
ENDMDL
MODEL 8
REMARK VINA RESULT:      -5.9     32.622     36.271
REMARK  5 active torsions:
REMARK  status: ('A' for Active; 'I' for Inactive)
REMARK    1  A    between atoms: O_2  and  C_11 
REMARK    2  A    between atoms: O_3  and  C_13 
REMARK    3  A    between atoms: O_5  and  C_15 
REMARK    4  A    between atoms: O_6  and  C_21 
REMARK    5  A    between atoms: C_9  and  C_12 
ROOT
HETATM    1  O   UNK     0      24.171  26.498  22.414  0.00  0.00    -0.306 OA
HETATM    2  O   UNK     0      22.447  22.832  21.976  0.00  0.00    -0.284 OA
HETATM    3  C   UNK     0      22.940  24.650  23.394  0.00  0.00     0.084 A 
HETATM    4  C   UNK     0      23.549  25.900  23.479  0.00  0.00     0.096 A 
HETATM    5  C   UNK     0      24.182  25.835  21.197  0.00  0.00     0.123 A 
HETATM    6  C   UNK     0      22.960  23.934  22.109  0.00  0.00     0.223 A 
HETATM    7  C   UNK     0      23.640  24.622  20.985  0.00  0.00     0.152 A 
HETATM    8  C   UNK     0      22.322  24.089  24.515  0.00  0.00     0.085 A 
HETATM    9  C   UNK     0      23.545  26.597  24.687  0.00  0.00     0.075 A 
HETATM   10  C   UNK     0      22.930  26.041  25.808  0.00  0.00     0.071 A 
HETATM   11  C   UNK     0      22.319  24.789  25.722  0.00  0.00     0.074 A 
ENDROOT
BRANCH   5  12
HETATM   12  C   UNK     0      24.881  26.586  20.139  0.00  0.00     0.001 A 
HETATM   13  C   UNK     0      24.192  27.540  19.390  0.00  0.00     0.017 A 
HETATM   14  C   UNK     0      24.854  28.252  18.389  0.00  0.00     0.037 A 
HETATM   15  C   UNK     0      26.204  28.009  18.137  0.00  0.00     0.065 A 
HETATM   16  C   UNK     0      26.893  27.055  18.887  0.00  0.00     0.037 A 
HETATM   17  C   UNK     0      26.231  26.343  19.888  0.00  0.00     0.017 A 
BRANCH  15  18
HETATM   18  O   UNK     0      26.850  28.703  17.161  0.00  0.00    -0.361 OA
HETATM   19  H   UNK     0      27.065  29.590  17.496  0.00  0.00     0.217 HD
ENDBRANCH  15  18
ENDBRANCH   5  12
BRANCH   7  20
HETATM   20  O   UNK     0      23.697  23.974  19.769  0.00  0.00    -0.355 OA
HETATM   21  H   UNK     0      23.074  24.384  19.147  0.00  0.00     0.218 HD
ENDBRANCH   7  20
BRANCH   8  22
HETATM   22  O   UNK     0      21.714  22.870  24.485  0.00  0.00    -0.360 OA
HETATM   23  H   UNK     0      22.203  22.232  25.027  0.00  0.00     0.217 HD
ENDBRANCH   8  22
BRANCH  10  24
HETATM   24  O   UNK     0      22.924  26.719  26.989  0.00  0.00    -0.361 OA
HETATM   25  H   UNK     0      23.783  26.596  27.427  0.00  0.00     0.217 HD
ENDBRANCH  10  24
TORSDOF 5
ENDMDL
MODEL 9
REMARK VINA RESULT:      -5.9      2.561      6.203
REMARK  5 active torsions:
REMARK  status: ('A' for Active; 'I' for Inactive)
REMARK    1  A    between atoms: O_2  and  C_11 
REMARK    2  A    between atoms: O_3  and  C_13 
REMARK    3  A    between atoms: O_5  and  C_15 
REMARK    4  A    between atoms: O_6  and  C_21 
REMARK    5  A    between atoms: C_9  and  C_12 
ROOT
HETATM    1  O   UNK     0      19.058  30.513 -12.677  0.00  0.00    -0.306 OA
HETATM    2  O   UNK     0      17.611  32.675 -15.813  0.00  0.00    -0.284 OA
HETATM    3  C   UNK     0      17.439  30.744 -14.471  0.00  0.00     0.084 A 
HETATM    4  C   UNK     0      17.982  30.052 -13.390  0.00  0.00     0.096 A 
HETATM    5  C   UNK     0      19.622  31.726 -13.040  0.00  0.00     0.123 A 
HETATM    6  C   UNK     0      18.041  32.025 -14.870  0.00  0.00     0.223 A 
HETATM    7  C   UNK     0      19.199  32.486 -14.067  0.00  0.00     0.152 A 
HETATM    8  C   UNK     0      16.341  30.224 -15.161  0.00  0.00     0.085 A 
HETATM    9  C   UNK     0      17.430  28.834 -12.994  0.00  0.00     0.075 A 
HETATM   10  C   UNK     0      16.335  28.311 -13.680  0.00  0.00     0.071 A 
HETATM   11  C   UNK     0      15.791  29.005 -14.762  0.00  0.00     0.074 A 
ENDROOT
BRANCH   5  12
HETATM   12  C   UNK     0      20.768  32.104 -12.195  0.00  0.00     0.001 A 
HETATM   13  C   UNK     0      20.558  32.522 -10.881  0.00  0.00     0.017 A 
HETATM   14  C   UNK     0      21.644  32.878 -10.080  0.00  0.00     0.037 A 
HETATM   15  C   UNK     0      22.938  32.818 -10.593  0.00  0.00     0.065 A 
HETATM   16  C   UNK     0      23.149  32.399 -11.908  0.00  0.00     0.037 A 
HETATM   17  C   UNK     0      22.063  32.042 -12.708  0.00  0.00     0.017 A 
BRANCH  15  18
HETATM   18  O   UNK     0      23.997  33.165  -9.813  0.00  0.00    -0.361 OA
HETATM   19  H   UNK     0      24.647  33.641 -10.357  0.00  0.00     0.217 HD
ENDBRANCH  15  18
ENDBRANCH   5  12
BRANCH   7  20
HETATM   20  O   UNK     0      19.803  33.673 -14.423  0.00  0.00    -0.355 OA
HETATM   21  H   UNK     0      20.194  34.093 -13.639  0.00  0.00     0.218 HD
ENDBRANCH   7  20
BRANCH   8  22
HETATM   22  O   UNK     0      15.774  30.860 -16.224  0.00  0.00    -0.360 OA
HETATM   23  H   UNK     0      16.407  31.469 -16.634  0.00  0.00     0.217 HD
ENDBRANCH   8  22
BRANCH  10  24
HETATM   24  O   UNK     0      15.794  27.122 -13.295  0.00  0.00    -0.361 OA
HETATM   25  H   UNK     0      14.838  27.140 -13.469  0.00  0.00     0.217 HD
ENDBRANCH  10  24
TORSDOF 5
ENDMDL
