MODEL 1
REMARK VINA RESULT:      -7.2      0.000      0.000
REMARK  5 active torsions:
REMARK  status: ('A' for Active; 'I' for Inactive)
REMARK    1  A    between atoms: O_2  and  C_11 
REMARK    2  A    between atoms: O_3  and  C_13 
REMARK    3  A    between atoms: O_5  and  C_15 
REMARK    4  A    between atoms: O_6  and  C_21 
REMARK    5  A    between atoms: C_9  and  C_12 
ROOT
HETATM    1  O   UNK     0      51.205  -1.743  37.959  0.00  0.00    -0.306 OA
HETATM    2  O   UNK     0      47.382  -2.392  36.708  0.00  0.00    -0.284 OA
HETATM    3  C   UNK     0      49.228  -3.151  37.964  0.00  0.00     0.084 A 
HETATM    4  C   UNK     0      50.536  -2.871  38.355  0.00  0.00     0.096 A 
HETATM    5  C   UNK     0      50.547  -0.835  37.145  0.00  0.00     0.123 A 
HETATM    6  C   UNK     0      48.529  -2.198  37.089  0.00  0.00     0.223 A 
HETATM    7  C   UNK     0      49.290  -0.990  36.690  0.00  0.00     0.152 A 
HETATM    8  C   UNK     0      48.596  -4.319  38.398  0.00  0.00     0.085 A 
HETATM    9  C   UNK     0      51.221  -3.761  39.183  0.00  0.00     0.075 A 
HETATM   10  C   UNK     0      50.594  -4.928  39.619  0.00  0.00     0.071 A 
HETATM   11  C   UNK     0      49.283  -5.206  39.227  0.00  0.00     0.074 A 
ENDROOT
BRANCH   5  12
HETATM   12  C   UNK     0      51.378   0.330  36.794  0.00  0.00     0.001 A 
HETATM   13  C   UNK     0      51.201   1.541  37.465  0.00  0.00     0.017 A 
HETATM   14  C   UNK     0      51.989   2.643  37.134  0.00  0.00     0.037 A 
HETATM   15  C   UNK     0      52.953   2.536  36.132  0.00  0.00     0.065 A 
HETATM   16  C   UNK     0      53.130   1.325  35.460  0.00  0.00     0.037 A 
HETATM   17  C   UNK     0      52.343   0.223  35.792  0.00  0.00     0.017 A 
BRANCH  15  18
HETATM   18  O   UNK     0      53.721   3.612  35.809  0.00  0.00    -0.361 OA
HETATM   19  H   UNK     0      53.154   4.299  35.420  0.00  0.00     0.217 HD
ENDBRANCH  15  18
ENDBRANCH   5  12
BRANCH   7  20
HETATM   20  O   UNK     0      48.676  -0.082  35.854  0.00  0.00    -0.355 OA
HETATM   21  H   UNK     0      49.346   0.424  35.367  0.00  0.00     0.218 HD
ENDBRANCH   7  20
BRANCH   8  22
HETATM   22  O   UNK     0      47.320  -4.639  38.044  0.00  0.00    -0.360 OA
HETATM   23  H   UNK     0      47.051  -5.473  38.457  0.00  0.00     0.217 HD
ENDBRANCH   8  22
BRANCH  10  24
HETATM   24  O   UNK     0      51.260  -5.798  40.427  0.00  0.00    -0.361 OA
HETATM   25  H   UNK     0      51.605  -6.529  39.887  0.00  0.00     0.217 HD
ENDBRANCH  10  24
TORSDOF 5
ENDMDL
MODEL 2
REMARK VINA RESULT:      -7.2     23.036     24.596
REMARK  5 active torsions:
REMARK  status: ('A' for Active; 'I' for Inactive)
REMARK    1  A    between atoms: O_2  and  C_11 
REMARK    2  A    between atoms: O_3  and  C_13 
REMARK    3  A    between atoms: O_5  and  C_15 
REMARK    4  A    between atoms: O_6  and  C_21 
REMARK    5  A    between atoms: C_9  and  C_12 
ROOT
HETATM    1  O   UNK     0      30.488   4.009  51.364  0.00  0.00    -0.306 OA
HETATM    2  O   UNK     0      31.302   4.356  47.387  0.00  0.00    -0.284 OA
HETATM    3  C   UNK     0      29.676   4.137  49.081  0.00  0.00     0.084 A 
HETATM    4  C   UNK     0      29.465   4.020  50.453  0.00  0.00     0.096 A 
HETATM    5  C   UNK     0      31.789   4.133  50.901  0.00  0.00     0.123 A 
HETATM    6  C   UNK     0      31.054   4.256  48.581  0.00  0.00     0.223 A 
HETATM    7  C   UNK     0      32.128   4.243  49.603  0.00  0.00     0.152 A 
HETATM    8  C   UNK     0      28.593   4.142  48.198  0.00  0.00     0.085 A 
HETATM    9  C   UNK     0      28.167   3.905  50.951  0.00  0.00     0.075 A 
HETATM   10  C   UNK     0      27.083   3.908  50.074  0.00  0.00     0.071 A 
HETATM   11  C   UNK     0      27.296   4.027  48.700  0.00  0.00     0.074 A 
ENDROOT
BRANCH   5  12
HETATM   12  C   UNK     0      32.790   4.106  51.981  0.00  0.00     0.001 A 
HETATM   13  C   UNK     0      33.256   2.886  52.470  0.00  0.00     0.017 A 
HETATM   14  C   UNK     0      34.205   2.860  53.492  0.00  0.00     0.037 A 
HETATM   15  C   UNK     0      34.686   4.055  54.027  0.00  0.00     0.065 A 
HETATM   16  C   UNK     0      34.219   5.276  53.539  0.00  0.00     0.037 A 
HETATM   17  C   UNK     0      33.271   5.301  52.516  0.00  0.00     0.017 A 
BRANCH  15  18
HETATM   18  O   UNK     0      35.611   4.030  55.024  0.00  0.00    -0.361 OA
HETATM   19  H   UNK     0      36.500   4.044  54.630  0.00  0.00     0.217 HD
ENDBRANCH  15  18
ENDBRANCH   5  12
BRANCH   7  20
HETATM   20  O   UNK     0      33.435   4.332  49.172  0.00  0.00    -0.355 OA
HETATM   21  H   UNK     0      33.517   5.040  48.513  0.00  0.00     0.218 HD
ENDBRANCH   7  20
BRANCH   8  22
HETATM   22  O   UNK     0      28.745   4.253  46.849  0.00  0.00    -0.360 OA
HETATM   23  H   UNK     0      28.144   4.925  46.492  0.00  0.00     0.217 HD
ENDBRANCH   8  22
BRANCH  10  24
HETATM   24  O   UNK     0      25.815   3.796  50.557  0.00  0.00    -0.361 OA
HETATM   25  H   UNK     0      25.466   2.919  50.325  0.00  0.00     0.217 HD
ENDBRANCH  10  24
TORSDOF 5
ENDMDL
MODEL 3
REMARK VINA RESULT:      -7.1     23.443     25.247
REMARK  5 active torsions:
REMARK  status: ('A' for Active; 'I' for Inactive)
REMARK    1  A    between atoms: O_2  and  C_11 
REMARK    2  A    between atoms: O_3  and  C_13 
REMARK    3  A    between atoms: O_5  and  C_15 
REMARK    4  A    between atoms: O_6  and  C_21 
REMARK    5  A    between atoms: C_9  and  C_12 
ROOT
HETATM    1  O   UNK     0      30.138   4.236  48.626  0.00  0.00    -0.306 OA
HETATM    2  O   UNK     0      26.228   4.155  49.770  0.00  0.00    -0.284 OA
HETATM    3  C   UNK     0      27.800   4.561  48.060  0.00  0.00     0.084 A 
HETATM    4  C   UNK     0      29.154   4.571  47.733  0.00  0.00     0.096 A 
HETATM    5  C   UNK     0      29.767   3.860  49.908  0.00  0.00     0.123 A 
HETATM    6  C   UNK     0      27.401   4.177  49.422  0.00  0.00     0.223 A 
HETATM    7  C   UNK     0      28.498   3.819  50.353  0.00  0.00     0.152 A 
HETATM    8  C   UNK     0      26.841   4.914  47.106  0.00  0.00     0.085 A 
HETATM    9  C   UNK     0      29.558   4.934  46.447  0.00  0.00     0.075 A 
HETATM   10  C   UNK     0      28.605   5.286  45.493  0.00  0.00     0.071 A 
HETATM   11  C   UNK     0      27.249   5.275  45.822  0.00  0.00     0.074 A 
ENDROOT
BRANCH   5  12
HETATM   12  C   UNK     0      30.918   3.527  50.765  0.00  0.00     0.001 A 
HETATM   13  C   UNK     0      31.240   2.193  51.014  0.00  0.00     0.017 A 
HETATM   14  C   UNK     0      32.331   1.878  51.825  0.00  0.00     0.037 A 
HETATM   15  C   UNK     0      33.099   2.896  52.387  0.00  0.00     0.065 A 
HETATM   16  C   UNK     0      32.778   4.231  52.138  0.00  0.00     0.037 A 
HETATM   17  C   UNK     0      31.687   4.546  51.327  0.00  0.00     0.017 A 
BRANCH  15  18
HETATM   18  O   UNK     0      34.163   2.589  53.178  0.00  0.00    -0.361 OA
HETATM   19  H   UNK     0      34.201   1.624  53.293  0.00  0.00     0.217 HD
ENDBRANCH  15  18
ENDBRANCH   5  12
BRANCH   7  20
HETATM   20  O   UNK     0      28.165   3.472  51.645  0.00  0.00    -0.355 OA
HETATM   21  H   UNK     0      28.944   3.549  52.219  0.00  0.00     0.218 HD
ENDBRANCH   7  20
BRANCH   8  22
HETATM   22  O   UNK     0      25.506   4.922  47.376  0.00  0.00    -0.360 OA
HETATM   23  H   UNK     0      25.104   4.075  47.129  0.00  0.00     0.217 HD
ENDBRANCH   8  22
BRANCH  10  24
HETATM   24  O   UNK     0      28.996   5.641  44.238  0.00  0.00    -0.361 OA
HETATM   25  H   UNK     0      29.947   5.845  44.250  0.00  0.00     0.217 HD
ENDBRANCH  10  24
TORSDOF 5
ENDMDL
MODEL 4
REMARK VINA RESULT:      -6.9     12.934     17.739
REMARK  5 active torsions:
REMARK  status: ('A' for Active; 'I' for Inactive)
REMARK    1  A    between atoms: O_2  and  C_11 
REMARK    2  A    between atoms: O_3  and  C_13 
REMARK    3  A    between atoms: O_5  and  C_15 
REMARK    4  A    between atoms: O_6  and  C_21 
REMARK    5  A    between atoms: C_9  and  C_12 
ROOT
HETATM    1  O   UNK     0      56.707 -11.498  47.623  0.00  0.00    -0.306 OA
HETATM    2  O   UNK     0      60.728 -10.934  47.962  0.00  0.00    -0.284 OA
HETATM    3  C   UNK     0      58.682 -10.214  47.038  0.00  0.00     0.084 A 
HETATM    4  C   UNK     0      57.313 -10.462  46.962  0.00  0.00     0.096 A 
HETATM    5  C   UNK     0      57.489 -12.328  48.411  0.00  0.00     0.123 A 
HETATM    6  C   UNK     0      59.520 -11.098  47.862  0.00  0.00     0.223 A 
HETATM    7  C   UNK     0      58.821 -12.203  48.561  0.00  0.00     0.152 A 
HETATM    8  C   UNK     0      59.245  -9.141  46.341  0.00  0.00     0.085 A 
HETATM    9  C   UNK     0      56.498  -9.637  46.185  0.00  0.00     0.075 A 
HETATM   10  C   UNK     0      57.055  -8.567  45.488  0.00  0.00     0.071 A 
HETATM   11  C   UNK     0      58.426  -8.319  45.566  0.00  0.00     0.074 A 
ENDROOT
BRANCH   5  12
HETATM   12  C   UNK     0      56.715 -13.398  49.063  0.00  0.00     0.001 A 
HETATM   13  C   UNK     0      56.832 -14.715  48.616  0.00  0.00     0.017 A 
HETATM   14  C   UNK     0      56.100 -15.729  49.235  0.00  0.00     0.037 A 
HETATM   15  C   UNK     0      55.251 -15.427  50.298  0.00  0.00     0.065 A 
HETATM   16  C   UNK     0      55.134 -14.110  50.746  0.00  0.00     0.037 A 
HETATM   17  C   UNK     0      55.866 -13.096  50.128  0.00  0.00     0.017 A 
BRANCH  15  18
HETATM   18  O   UNK     0      54.537 -16.415  50.902  0.00  0.00    -0.361 OA
HETATM   19  H   UNK     0      54.468 -17.170  50.293  0.00  0.00     0.217 HD
ENDBRANCH  15  18
ENDBRANCH   5  12
BRANCH   7  20
HETATM   20  O   UNK     0      59.575 -13.066  49.327  0.00  0.00    -0.355 OA
HETATM   21  H   UNK     0      59.227 -13.969  49.247  0.00  0.00     0.218 HD
ENDBRANCH   7  20
BRANCH   8  22
HETATM   22  O   UNK     0      60.577  -8.857  46.381  0.00  0.00    -0.360 OA
HETATM   23  H   UNK     0      60.855  -8.415  45.565  0.00  0.00     0.217 HD
ENDBRANCH   8  22
BRANCH  10  24
HETATM   24  O   UNK     0      56.262  -7.761  44.730  0.00  0.00    -0.361 OA
HETATM   25  H   UNK     0      55.430  -8.227  44.539  0.00  0.00     0.217 HD
ENDBRANCH  10  24
TORSDOF 5
ENDMDL
MODEL 5
REMARK VINA RESULT:      -6.7     23.758     25.520
REMARK  5 active torsions:
REMARK  status: ('A' for Active; 'I' for Inactive)
REMARK    1  A    between atoms: O_2  and  C_11 
REMARK    2  A    between atoms: O_3  and  C_13 
REMARK    3  A    between atoms: O_5  and  C_15 
REMARK    4  A    between atoms: O_6  and  C_21 
REMARK    5  A    between atoms: C_9  and  C_12 
ROOT
HETATM    1  O   UNK     0      30.143   4.842  50.744  0.00  0.00    -0.306 OA
HETATM    2  O   UNK     0      31.640   1.082  51.222  0.00  0.00    -0.284 OA
HETATM    3  C   UNK     0      31.944   3.404  51.504  0.00  0.00     0.084 A 
HETATM    4  C   UNK     0      31.377   4.661  51.311  0.00  0.00     0.096 A 
HETATM    5  C   UNK     0      29.423   3.722  50.357  0.00  0.00     0.123 A 
HETATM    6  C   UNK     0      31.192   2.212  51.083  0.00  0.00     0.223 A 
HETATM    7  C   UNK     0      29.860   2.455  50.478  0.00  0.00     0.152 A 
HETATM    8  C   UNK     0      33.208   3.281  52.088  0.00  0.00     0.085 A 
HETATM    9  C   UNK     0      32.073   5.807  51.700  0.00  0.00     0.075 A 
HETATM   10  C   UNK     0      33.334   5.689  52.283  0.00  0.00     0.071 A 
HETATM   11  C   UNK     0      33.901   4.429  52.477  0.00  0.00     0.074 A 
ENDROOT
BRANCH   5  12
HETATM   12  C   UNK     0      28.117   4.056  49.762  0.00  0.00     0.001 A 
HETATM   13  C   UNK     0      28.023   4.344  48.401  0.00  0.00     0.017 A 
HETATM   14  C   UNK     0      26.786   4.658  47.838  0.00  0.00     0.037 A 
HETATM   15  C   UNK     0      25.643   4.687  48.636  0.00  0.00     0.065 A 
HETATM   16  C   UNK     0      25.737   4.399  49.999  0.00  0.00     0.037 A 
HETATM   17  C   UNK     0      26.974   4.083  50.561  0.00  0.00     0.017 A 
BRANCH  15  18
HETATM   18  O   UNK     0      24.437   4.993  48.087  0.00  0.00    -0.361 OA
HETATM   19  H   UNK     0      24.272   5.945  48.200  0.00  0.00     0.217 HD
ENDBRANCH  15  18
ENDBRANCH   5  12
BRANCH   7  20
HETATM   20  O   UNK     0      29.132   1.364  50.053  0.00  0.00    -0.355 OA
HETATM   21  H   UNK     0      29.733   0.668  49.742  0.00  0.00     0.218 HD
ENDBRANCH   7  20
BRANCH   8  22
HETATM   22  O   UNK     0      33.807   2.075  52.297  0.00  0.00    -0.360 OA
HETATM   23  H   UNK     0      33.329   1.571  52.973  0.00  0.00     0.217 HD
ENDBRANCH   8  22
BRANCH  10  24
HETATM   24  O   UNK     0      34.015   6.805  52.664  0.00  0.00    -0.361 OA
HETATM   25  H   UNK     0      33.564   7.588  52.304  0.00  0.00     0.217 HD
ENDBRANCH  10  24
TORSDOF 5
ENDMDL
MODEL 6
REMARK VINA RESULT:      -6.7     15.152     17.833
REMARK  5 active torsions:
REMARK  status: ('A' for Active; 'I' for Inactive)
REMARK    1  A    between atoms: O_2  and  C_11 
REMARK    2  A    between atoms: O_3  and  C_13 
REMARK    3  A    between atoms: O_5  and  C_15 
REMARK    4  A    between atoms: O_6  and  C_21 
REMARK    5  A    between atoms: C_9  and  C_12 
ROOT
HETATM    1  O   UNK     0      43.769  14.403  39.539  0.00  0.00    -0.306 OA
HETATM    2  O   UNK     0      39.748  13.924  39.084  0.00  0.00    -0.284 OA
HETATM    3  C   UNK     0      41.522  14.798  40.369  0.00  0.00     0.084 A 
HETATM    4  C   UNK     0      42.906  14.925  40.467  0.00  0.00     0.096 A 
HETATM    5  C   UNK     0      43.240  13.730  38.449  0.00  0.00     0.123 A 
HETATM    6  C   UNK     0      40.954  14.073  39.221  0.00  0.00     0.223 A 
HETATM    7  C   UNK     0      41.925  13.529  38.241  0.00  0.00     0.152 A 
HETATM    8  C   UNK     0      40.691  15.351  41.347  0.00  0.00     0.085 A 
HETATM    9  C   UNK     0      43.468  15.606  41.547  0.00  0.00     0.075 A 
HETATM   10  C   UNK     0      42.643  16.159  42.525  0.00  0.00     0.071 A 
HETATM   11  C   UNK     0      41.257  16.032  42.425  0.00  0.00     0.074 A 
ENDROOT
BRANCH   5  12
HETATM   12  C   UNK     0      44.273  13.220  37.531  0.00  0.00     0.001 A 
HETATM   13  C   UNK     0      44.649  13.971  36.417  0.00  0.00     0.017 A 
HETATM   14  C   UNK     0      45.629  13.488  35.549  0.00  0.00     0.037 A 
HETATM   15  C   UNK     0      46.231  12.255  35.793  0.00  0.00     0.065 A 
HETATM   16  C   UNK     0      45.855  11.503  36.907  0.00  0.00     0.037 A 
HETATM   17  C   UNK     0      44.876  11.986  37.776  0.00  0.00     0.017 A 
BRANCH  15  18
HETATM   18  O   UNK     0      47.186  11.784  34.946  0.00  0.00    -0.361 OA
HETATM   19  H   UNK     0      46.768  11.194  34.296  0.00  0.00     0.217 HD
ENDBRANCH  15  18
ENDBRANCH   5  12
BRANCH   7  20
HETATM   20  O   UNK     0      41.432  12.826  37.162  0.00  0.00    -0.355 OA
HETATM   21  H   UNK     0      42.040  12.908  36.410  0.00  0.00     0.218 HD
ENDBRANCH   7  20
BRANCH   8  22
HETATM   22  O   UNK     0      39.333  15.253  41.297  0.00  0.00    -0.360 OA
HETATM   23  H   UNK     0      38.990  14.863  42.116  0.00  0.00     0.217 HD
ENDBRANCH   8  22
BRANCH  10  24
HETATM   24  O   UNK     0      43.189  16.825  43.580  0.00  0.00    -0.361 OA
HETATM   25  H   UNK     0      42.535  16.869  44.298  0.00  0.00     0.217 HD
ENDBRANCH  10  24
TORSDOF 5
ENDMDL
MODEL 7
REMARK VINA RESULT:      -6.7     22.210     23.449
REMARK  5 active torsions:
REMARK  status: ('A' for Active; 'I' for Inactive)
REMARK    1  A    between atoms: O_2  and  C_11 
REMARK    2  A    between atoms: O_3  and  C_13 
REMARK    3  A    between atoms: O_5  and  C_15 
REMARK    4  A    between atoms: O_6  and  C_21 
REMARK    5  A    between atoms: C_9  and  C_12 
ROOT
HETATM    1  O   UNK     0      32.992   3.745  52.523  0.00  0.00    -0.306 OA
HETATM    2  O   UNK     0      34.198   4.642  48.735  0.00  0.00    -0.284 OA
HETATM    3  C   UNK     0      33.011   3.186  50.161  0.00  0.00     0.084 A 
HETATM    4  C   UNK     0      32.634   2.934  51.478  0.00  0.00     0.096 A 
HETATM    5  C   UNK     0      33.754   4.871  52.254  0.00  0.00     0.123 A 
HETATM    6  C   UNK     0      33.831   4.372  49.871  0.00  0.00     0.223 A 
HETATM    7  C   UNK     0      34.192   5.222  51.031  0.00  0.00     0.152 A 
HETATM    8  C   UNK     0      32.616   2.322  49.136  0.00  0.00     0.085 A 
HETATM    9  C   UNK     0      31.858   1.814  51.779  0.00  0.00     0.075 A 
HETATM   10  C   UNK     0      31.461   0.949  50.759  0.00  0.00     0.071 A 
HETATM   11  C   UNK     0      31.840   1.203  49.440  0.00  0.00     0.074 A 
ENDROOT
BRANCH   5  12
HETATM   12  C   UNK     0      34.070   5.654  53.462  0.00  0.00     0.001 A 
HETATM   13  C   UNK     0      35.184   5.326  54.234  0.00  0.00     0.017 A 
HETATM   14  C   UNK     0      35.484   6.068  55.377  0.00  0.00     0.037 A 
HETATM   15  C   UNK     0      34.668   7.135  55.749  0.00  0.00     0.065 A 
HETATM   16  C   UNK     0      33.553   7.463  54.978  0.00  0.00     0.037 A 
HETATM   17  C   UNK     0      33.254   6.722  53.834  0.00  0.00     0.017 A 
BRANCH  15  18
HETATM   18  O   UNK     0      34.960   7.858  56.864  0.00  0.00    -0.361 OA
HETATM   19  H   UNK     0      35.477   7.304  57.473  0.00  0.00     0.217 HD
ENDBRANCH  15  18
ENDBRANCH   5  12
BRANCH   7  20
HETATM   20  O   UNK     0      34.976   6.333  50.802  0.00  0.00    -0.355 OA
HETATM   21  H   UNK     0      35.478   6.552  51.603  0.00  0.00     0.218 HD
ENDBRANCH   7  20
BRANCH   8  22
HETATM   22  O   UNK     0      32.960   2.522  47.833  0.00  0.00    -0.360 OA
HETATM   23  H   UNK     0      32.172   2.701  47.297  0.00  0.00     0.217 HD
ENDBRANCH   8  22
BRANCH  10  24
HETATM   24  O   UNK     0      30.704  -0.145  51.050  0.00  0.00    -0.361 OA
HETATM   25  H   UNK     0      30.201   0.028  51.863  0.00  0.00     0.217 HD
ENDBRANCH  10  24
TORSDOF 5
ENDMDL
MODEL 8
REMARK VINA RESULT:      -6.6     23.345     25.076
REMARK  5 active torsions:
REMARK  status: ('A' for Active; 'I' for Inactive)
REMARK    1  A    between atoms: O_2  and  C_11 
REMARK    2  A    between atoms: O_3  and  C_13 
REMARK    3  A    between atoms: O_5  and  C_15 
REMARK    4  A    between atoms: O_6  and  C_21 
REMARK    5  A    between atoms: C_9  and  C_12 
ROOT
HETATM    1  O   UNK     0      29.200   3.795  50.175  0.00  0.00    -0.306 OA
HETATM    2  O   UNK     0      30.114   5.080  46.418  0.00  0.00    -0.284 OA
HETATM    3  C   UNK     0      28.444   4.525  47.987  0.00  0.00     0.084 A 
HETATM    4  C   UNK     0      28.198   4.080  49.284  0.00  0.00     0.096 A 
HETATM    5  C   UNK     0      30.514   3.969  49.770  0.00  0.00     0.123 A 
HETATM    6  C   UNK     0      29.836   4.698  47.547  0.00  0.00     0.223 A 
HETATM    7  C   UNK     0      30.886   4.382  48.545  0.00  0.00     0.152 A 
HETATM    8  C   UNK     0      27.381   4.799  47.122  0.00  0.00     0.085 A 
HETATM    9  C   UNK     0      26.886   3.906  49.725  0.00  0.00     0.075 A 
HETATM   10  C   UNK     0      25.822   4.179  48.865  0.00  0.00     0.071 A 
HETATM   11  C   UNK     0      26.070   4.625  47.566  0.00  0.00     0.074 A 
ENDROOT
BRANCH   5  12
HETATM   12  C   UNK     0      31.489   3.627  50.820  0.00  0.00     0.001 A 
HETATM   13  C   UNK     0      32.189   4.638  51.479  0.00  0.00     0.017 A 
HETATM   14  C   UNK     0      33.111   4.314  52.474  0.00  0.00     0.037 A 
HETATM   15  C   UNK     0      33.335   2.980  52.810  0.00  0.00     0.065 A 
HETATM   16  C   UNK     0      32.636   1.968  52.151  0.00  0.00     0.037 A 
HETATM   17  C   UNK     0      31.713   2.292  51.157  0.00  0.00     0.017 A 
BRANCH  15  18
HETATM   18  O   UNK     0      34.235   2.664  53.780  0.00  0.00    -0.361 OA
HETATM   19  H   UNK     0      34.726   3.466  54.028  0.00  0.00     0.217 HD
ENDBRANCH  15  18
ENDBRANCH   5  12
BRANCH   7  20
HETATM   20  O   UNK     0      32.204   4.513  48.163  0.00  0.00    -0.355 OA
HETATM   21  H   UNK     0      32.784   4.399  48.933  0.00  0.00     0.218 HD
ENDBRANCH   7  20
BRANCH   8  22
HETATM   22  O   UNK     0      27.567   5.235  45.845  0.00  0.00    -0.360 OA
HETATM   23  H   UNK     0      26.732   5.215  45.353  0.00  0.00     0.217 HD
ENDBRANCH   8  22
BRANCH  10  24
HETATM   24  O   UNK     0      24.541   4.010  49.293  0.00  0.00    -0.361 OA
HETATM   25  H   UNK     0      24.549   3.815  50.245  0.00  0.00     0.217 HD
ENDBRANCH  10  24
TORSDOF 5
ENDMDL
MODEL 9
REMARK VINA RESULT:      -6.6     28.675     30.577
REMARK  5 active torsions:
REMARK  status: ('A' for Active; 'I' for Inactive)
REMARK    1  A    between atoms: O_2  and  C_11 
REMARK    2  A    between atoms: O_3  and  C_13 
REMARK    3  A    between atoms: O_5  and  C_15 
REMARK    4  A    between atoms: O_6  and  C_21 
REMARK    5  A    between atoms: C_9  and  C_12 
ROOT
HETATM    1  O   UNK     0      66.348 -10.798  12.917  0.00  0.00    -0.306 OA
HETATM    2  O   UNK     0      63.919  -8.303  15.032  0.00  0.00    -0.284 OA
HETATM    3  C   UNK     0      66.115  -8.990  14.518  0.00  0.00     0.084 A 
HETATM    4  C   UNK     0      66.890  -9.872  13.769  0.00  0.00     0.096 A 
HETATM    5  C   UNK     0      64.969 -10.850  12.786  0.00  0.00     0.123 A 
HETATM    6  C   UNK     0      64.651  -9.049  14.395  0.00  0.00     0.223 A 
HETATM    7  C   UNK     0      64.110 -10.063  13.459  0.00  0.00     0.152 A 
HETATM    8  C   UNK     0      66.724  -8.066  15.372  0.00  0.00     0.085 A 
HETATM    9  C   UNK     0      68.281  -9.837  13.870  0.00  0.00     0.075 A 
HETATM   10  C   UNK     0      68.893  -8.917  14.721  0.00  0.00     0.071 A 
HETATM   11  C   UNK     0      68.116  -8.033  15.470  0.00  0.00     0.074 A 
ENDROOT
BRANCH   5  12
HETATM   12  C   UNK     0      64.519 -11.888  11.842  0.00  0.00     0.001 A 
HETATM   13  C   UNK     0      64.213 -13.168  12.305  0.00  0.00     0.017 A 
HETATM   14  C   UNK     0      63.786 -14.150  11.411  0.00  0.00     0.037 A 
HETATM   15  C   UNK     0      63.666 -13.853  10.054  0.00  0.00     0.065 A 
HETATM   16  C   UNK     0      63.972 -12.572   9.590  0.00  0.00     0.037 A 
HETATM   17  C   UNK     0      64.399 -11.590  10.484  0.00  0.00     0.017 A 
BRANCH  15  18
HETATM   18  O   UNK     0      63.250 -14.810   9.182  0.00  0.00    -0.361 OA
HETATM   19  H   UNK     0      62.891 -14.379   8.388  0.00  0.00     0.217 HD
ENDBRANCH  15  18
ENDBRANCH   5  12
BRANCH   7  20
HETATM   20  O   UNK     0      62.740 -10.162  13.331  0.00  0.00    -0.355 OA
HETATM   21  H   UNK     0      62.442 -11.032  13.644  0.00  0.00     0.218 HD
ENDBRANCH   7  20
BRANCH   8  22
HETATM   22  O   UNK     0      66.012  -7.183  16.127  0.00  0.00    -0.360 OA
HETATM   23  H   UNK     0      66.184  -7.326  17.070  0.00  0.00     0.217 HD
ENDBRANCH   8  22
BRANCH  10  24
HETATM   24  O   UNK     0      70.250  -8.881  14.821  0.00  0.00    -0.361 OA
HETATM   25  H   UNK     0      70.578  -8.078  14.382  0.00  0.00     0.217 HD
ENDBRANCH  10  24
TORSDOF 5
ENDMDL
