MODEL 1
REMARK VINA RESULT:      -4.6      0.000      0.000
REMARK  5 active torsions:
REMARK  status: ('A' for Active; 'I' for Inactive)
REMARK    1  A    between atoms: O_1  and  C_7 
REMARK    2  A    between atoms: O_2  and  C_8 
REMARK    3  A    between atoms: O_3  and  C_9 
REMARK    4  A    between atoms: O_4  and  C_12 
REMARK    5  A    between atoms: C_6  and  C_12 
ROOT
HETATM    1  O   UNK     0      17.807  32.134 -11.754  0.00  0.00    -0.356 OA
HETATM    2  H   UNK     0      18.761  32.317 -11.816  0.00  0.00     0.218 HD
ENDROOT
BRANCH   1   3
HETATM    3  C   UNK     0      17.607  30.808 -12.000  0.00  0.00     0.132 A 
HETATM    4  C   UNK     0      16.632  30.106 -11.290  0.00  0.00     0.102 A 
HETATM    5  C   UNK     0      16.427  28.751 -11.542  0.00  0.00     0.057 A 
HETATM    6  C   UNK     0      17.196  28.094 -12.502  0.00  0.00     0.043 A 
HETATM    7  C   UNK     0      18.171  28.796 -13.212  0.00  0.00     0.057 A 
HETATM    8  C   UNK     0      18.377  30.152 -12.961  0.00  0.00     0.102 A 
BRANCH   4   9
HETATM    9  O   UNK     0      15.875  30.736 -10.349  0.00  0.00    -0.358 OA
HETATM   10  H   UNK     0      15.021  30.986 -10.743  0.00  0.00     0.217 HD
ENDBRANCH   4   9
BRANCH   6  11
HETATM   11  C   UNK     0      16.981  26.680 -12.765  0.00  0.00     0.176 C 
HETATM   12  O   UNK     0      16.013  26.204 -13.368  0.00  0.00    -0.646 OA
BRANCH  11  13
HETATM   13  O   UNK     0      17.979  25.901 -12.268  0.00  0.00    -0.773 OA
HETATM   14  H   UNK     0      18.275  26.206 -11.383  0.00  0.00     0.167 HD
ENDBRANCH  11  13
ENDBRANCH   6  11
BRANCH   8  15
HETATM   15  O   UNK     0      19.331  30.826 -13.662  0.00  0.00    -0.358 OA
HETATM   16  H   UNK     0      18.902  31.263 -14.418  0.00  0.00     0.217 HD
ENDBRANCH   8  15
ENDBRANCH   1   3
TORSDOF 5
ENDMDL
MODEL 2
REMARK VINA RESULT:      -4.6      0.452      2.440
REMARK  5 active torsions:
REMARK  status: ('A' for Active; 'I' for Inactive)
REMARK    1  A    between atoms: O_1  and  C_7 
REMARK    2  A    between atoms: O_2  and  C_8 
REMARK    3  A    between atoms: O_3  and  C_9 
REMARK    4  A    between atoms: O_4  and  C_12 
REMARK    5  A    between atoms: C_6  and  C_12 
ROOT
HETATM    1  O   UNK     0      18.324  32.298 -11.657  0.00  0.00    -0.356 OA
HETATM    2  H   UNK     0      19.291  32.296 -11.547  0.00  0.00     0.218 HD
ENDROOT
BRANCH   1   3
HETATM    3  C   UNK     0      17.925  31.031 -11.962  0.00  0.00     0.132 A 
HETATM    4  C   UNK     0      18.564  30.323 -12.980  0.00  0.00     0.102 A 
HETATM    5  C   UNK     0      18.156  29.027 -13.292  0.00  0.00     0.057 A 
HETATM    6  C   UNK     0      17.107  28.437 -12.588  0.00  0.00     0.043 A 
HETATM    7  C   UNK     0      16.467  29.145 -11.570  0.00  0.00     0.057 A 
HETATM    8  C   UNK     0      16.875  30.441 -11.257  0.00  0.00     0.102 A 
BRANCH   4   9
HETATM    9  O   UNK     0      19.590  30.889 -13.676  0.00  0.00    -0.358 OA
HETATM   10  H   UNK     0      19.345  30.944 -14.616  0.00  0.00     0.217 HD
ENDBRANCH   4   9
BRANCH   6  11
HETATM   11  C   UNK     0      16.682  27.085 -12.912  0.00  0.00     0.176 C 
HETATM   12  O   UNK     0      15.632  26.784 -13.489  0.00  0.00    -0.646 OA
BRANCH  11  13
HETATM   13  O   UNK     0      17.581  26.146 -12.509  0.00  0.00    -0.773 OA
HETATM   14  H   UNK     0      17.176  25.254 -12.452  0.00  0.00     0.167 HD
ENDBRANCH  11  13
ENDBRANCH   6  11
BRANCH   8  15
HETATM   15  O   UNK     0      16.242  31.121 -10.260  0.00  0.00    -0.358 OA
HETATM   16  H   UNK     0      15.292  31.150 -10.465  0.00  0.00     0.217 HD
ENDBRANCH   8  15
ENDBRANCH   1   3
TORSDOF 5
ENDMDL
MODEL 3
REMARK VINA RESULT:      -4.4      3.769      4.962
REMARK  5 active torsions:
REMARK  status: ('A' for Active; 'I' for Inactive)
REMARK    1  A    between atoms: O_1  and  C_7 
REMARK    2  A    between atoms: O_2  and  C_8 
REMARK    3  A    between atoms: O_3  and  C_9 
REMARK    4  A    between atoms: O_4  and  C_12 
REMARK    5  A    between atoms: C_6  and  C_12 
ROOT
HETATM    1  O   UNK     0      16.654  26.659  -7.053  0.00  0.00    -0.356 OA
HETATM    2  H   UNK     0      15.979  26.076  -6.662  0.00  0.00     0.218 HD
ENDROOT
BRANCH   1   3
HETATM    3  C   UNK     0      16.855  26.278  -8.346  0.00  0.00     0.132 A 
HETATM    4  C   UNK     0      17.755  25.254  -8.640  0.00  0.00     0.102 A 
HETATM    5  C   UNK     0      17.961  24.863  -9.962  0.00  0.00     0.057 A 
HETATM    6  C   UNK     0      17.267  25.496 -10.993  0.00  0.00     0.043 A 
HETATM    7  C   UNK     0      16.366  26.520 -10.699  0.00  0.00     0.057 A 
HETATM    8  C   UNK     0      16.160  26.911  -9.377  0.00  0.00     0.102 A 
BRANCH   4   9
HETATM    9  O   UNK     0      18.441  24.628  -7.642  0.00  0.00    -0.358 OA
HETATM   10  H   UNK     0      17.824  24.413  -6.919  0.00  0.00     0.217 HD
ENDBRANCH   4   9
BRANCH   6  11
HETATM   11  C   UNK     0      17.480  25.087 -12.372  0.00  0.00     0.176 C 
HETATM   12  O   UNK     0      16.676  25.244 -13.297  0.00  0.00    -0.646 OA
BRANCH  11  13
HETATM   13  O   UNK     0      18.691  24.494 -12.558  0.00  0.00    -0.773 OA
HETATM   14  H   UNK     0      19.228  24.964 -13.232  0.00  0.00     0.167 HD
ENDBRANCH  11  13
ENDBRANCH   6  11
BRANCH   8  15
HETATM   15  O   UNK     0      15.276  27.912  -9.104  0.00  0.00    -0.358 OA
HETATM   16  H   UNK     0      15.042  27.863  -8.161  0.00  0.00     0.217 HD
ENDBRANCH   8  15
ENDBRANCH   1   3
TORSDOF 5
ENDMDL
MODEL 4
REMARK VINA RESULT:      -4.4      3.770      4.825
REMARK  5 active torsions:
REMARK  status: ('A' for Active; 'I' for Inactive)
REMARK    1  A    between atoms: O_1  and  C_7 
REMARK    2  A    between atoms: O_2  and  C_8 
REMARK    3  A    between atoms: O_3  and  C_9 
REMARK    4  A    between atoms: O_4  and  C_12 
REMARK    5  A    between atoms: C_6  and  C_12 
ROOT
HETATM    1  O   UNK     0      16.657  26.618  -7.040  0.00  0.00    -0.356 OA
HETATM    2  H   UNK     0      17.243  26.085  -6.476  0.00  0.00     0.218 HD
ENDROOT
BRANCH   1   3
HETATM    3  C   UNK     0      16.857  26.251  -8.337  0.00  0.00     0.132 A 
HETATM    4  C   UNK     0      16.158  26.893  -9.360  0.00  0.00     0.102 A 
HETATM    5  C   UNK     0      16.363  26.519 -10.687  0.00  0.00     0.057 A 
HETATM    6  C   UNK     0      17.266  25.501 -10.994  0.00  0.00     0.043 A 
HETATM    7  C   UNK     0      17.965  24.859  -9.971  0.00  0.00     0.057 A 
HETATM    8  C   UNK     0      17.760  25.233  -8.644  0.00  0.00     0.102 A 
BRANCH   4   9
HETATM    9  O   UNK     0      15.272  27.888  -9.073  0.00  0.00    -0.358 OA
HETATM   10  H   UNK     0      15.661  28.477  -8.402  0.00  0.00     0.217 HD
ENDBRANCH   4   9
BRANCH   6  11
HETATM   11  C   UNK     0      17.480  25.111 -12.378  0.00  0.00     0.176 C 
HETATM   12  O   UNK     0      16.682  25.290 -13.304  0.00  0.00    -0.646 OA
BRANCH  11  13
HETATM   13  O   UNK     0      18.686  24.508 -12.568  0.00  0.00    -0.773 OA
HETATM   14  H   UNK     0      18.866  23.828 -11.884  0.00  0.00     0.167 HD
ENDBRANCH  11  13
ENDBRANCH   6  11
BRANCH   8  15
HETATM   15  O   UNK     0      18.451  24.599  -7.655  0.00  0.00    -0.358 OA
HETATM   16  H   UNK     0      18.530  23.659  -7.892  0.00  0.00     0.217 HD
ENDBRANCH   8  15
ENDBRANCH   1   3
TORSDOF 5
ENDMDL
MODEL 5
REMARK VINA RESULT:      -4.4      1.294      4.138
REMARK  5 active torsions:
REMARK  status: ('A' for Active; 'I' for Inactive)
REMARK    1  A    between atoms: O_1  and  C_7 
REMARK    2  A    between atoms: O_2  and  C_8 
REMARK    3  A    between atoms: O_3  and  C_9 
REMARK    4  A    between atoms: O_4  and  C_12 
REMARK    5  A    between atoms: C_6  and  C_12 
ROOT
HETATM    1  O   UNK     0      15.155  27.239 -10.452  0.00  0.00    -0.356 OA
HETATM    2  H   UNK     0      14.794  26.536 -11.019  0.00  0.00     0.218 HD
ENDROOT
BRANCH   1   3
HETATM    3  C   UNK     0      16.010  27.995 -11.197  0.00  0.00     0.132 A 
HETATM    4  C   UNK     0      16.793  27.396 -12.184  0.00  0.00     0.102 A 
HETATM    5  C   UNK     0      17.668  28.169 -12.946  0.00  0.00     0.057 A 
HETATM    6  C   UNK     0      17.762  29.542 -12.723  0.00  0.00     0.043 A 
HETATM    7  C   UNK     0      16.978  30.142 -11.736  0.00  0.00     0.057 A 
HETATM    8  C   UNK     0      16.104  29.369 -10.973  0.00  0.00     0.102 A 
BRANCH   4   9
HETATM    9  O   UNK     0      16.712  26.055 -12.411  0.00  0.00    -0.358 OA
HETATM   10  H   UNK     0      17.521  25.759 -12.865  0.00  0.00     0.217 HD
ENDBRANCH   4   9
BRANCH   6  11
HETATM   11  C   UNK     0      18.673  30.349 -13.519  0.00  0.00     0.176 C 
HETATM   12  O   UNK     0      19.019  31.505 -13.258  0.00  0.00    -0.646 OA
BRANCH  11  13
HETATM   13  O   UNK     0      19.126  29.688 -14.619  0.00  0.00    -0.773 OA
HETATM   14  H   UNK     0      19.962  29.207 -14.438  0.00  0.00     0.167 HD
ENDBRANCH  11  13
ENDBRANCH   6  11
BRANCH   8  15
HETATM   15  O   UNK     0      15.343  29.968 -10.014  0.00  0.00    -0.358 OA
HETATM   16  H   UNK     0      15.381  30.930 -10.151  0.00  0.00     0.217 HD
ENDBRANCH   8  15
ENDBRANCH   1   3
TORSDOF 5
ENDMDL
MODEL 6
REMARK VINA RESULT:      -4.3      2.524      4.127
REMARK  5 active torsions:
REMARK  status: ('A' for Active; 'I' for Inactive)
REMARK    1  A    between atoms: O_1  and  C_7 
REMARK    2  A    between atoms: O_2  and  C_8 
REMARK    3  A    between atoms: O_3  and  C_9 
REMARK    4  A    between atoms: O_4  and  C_12 
REMARK    5  A    between atoms: C_6  and  C_12 
ROOT
HETATM    1  O   UNK     0      14.472  28.150 -14.678  0.00  0.00    -0.356 OA
HETATM    2  H   UNK     0      13.667  28.236 -14.139  0.00  0.00     0.218 HD
ENDROOT
BRANCH   1   3
HETATM    3  C   UNK     0      15.377  27.405 -13.982  0.00  0.00     0.132 A 
HETATM    4  C   UNK     0      16.333  28.033 -13.185  0.00  0.00     0.102 A 
HETATM    5  C   UNK     0      17.259  27.272 -12.472  0.00  0.00     0.057 A 
HETATM    6  C   UNK     0      17.230  25.880 -12.557  0.00  0.00     0.043 A 
HETATM    7  C   UNK     0      16.273  25.250 -13.355  0.00  0.00     0.057 A 
HETATM    8  C   UNK     0      15.348  26.012 -14.067  0.00  0.00     0.102 A 
BRANCH   4   9
HETATM    9  O   UNK     0      16.373  29.393 -13.094  0.00  0.00    -0.358 OA
HETATM   10  H   UNK     0      17.280  29.697 -13.274  0.00  0.00     0.217 HD
ENDBRANCH   4   9
BRANCH   6  11
HETATM   11  C   UNK     0      18.194  25.085 -11.813  0.00  0.00     0.176 C 
HETATM   12  O   UNK     0      18.449  25.211 -10.611  0.00  0.00    -0.646 OA
BRANCH  11  13
HETATM   13  O   UNK     0      18.813  24.156 -12.591  0.00  0.00    -0.773 OA
HETATM   14  H   UNK     0      18.584  24.263 -13.540  0.00  0.00     0.167 HD
ENDBRANCH  11  13
ENDBRANCH   6  11
BRANCH   8  15
HETATM   15  O   UNK     0      14.418  25.385 -14.841  0.00  0.00    -0.358 OA
HETATM   16  H   UNK     0      14.878  24.954 -15.582  0.00  0.00     0.217 HD
ENDBRANCH   8  15
ENDBRANCH   1   3
TORSDOF 5
ENDMDL
MODEL 7
REMARK VINA RESULT:      -4.2      1.766      4.542
REMARK  5 active torsions:
REMARK  status: ('A' for Active; 'I' for Inactive)
REMARK    1  A    between atoms: O_1  and  C_7 
REMARK    2  A    between atoms: O_2  and  C_8 
REMARK    3  A    between atoms: O_3  and  C_9 
REMARK    4  A    between atoms: O_4  and  C_12 
REMARK    5  A    between atoms: C_6  and  C_12 
ROOT
HETATM    1  O   UNK     0      14.415  25.559 -13.127  0.00  0.00    -0.356 OA
HETATM    2  H   UNK     0      13.636  25.897 -12.652  0.00  0.00     0.218 HD
ENDROOT
BRANCH   1   3
HETATM    3  C   UNK     0      15.359  26.542 -13.159  0.00  0.00     0.132 A 
HETATM    4  C   UNK     0      15.110  27.725 -13.855  0.00  0.00     0.102 A 
HETATM    5  C   UNK     0      16.075  28.732 -13.887  0.00  0.00     0.057 A 
HETATM    6  C   UNK     0      17.289  28.556 -13.225  0.00  0.00     0.043 A 
HETATM    7  C   UNK     0      17.538  27.372 -12.530  0.00  0.00     0.057 A 
HETATM    8  C   UNK     0      16.574  26.366 -12.497  0.00  0.00     0.102 A 
BRANCH   4   9
HETATM    9  O   UNK     0      13.927  27.909 -14.506  0.00  0.00    -0.358 OA
HETATM   10  H   UNK     0      13.557  27.041 -14.743  0.00  0.00     0.217 HD
ENDBRANCH   4   9
BRANCH   6  11
HETATM   11  C   UNK     0      18.295  29.606 -13.259  0.00  0.00     0.176 C 
HETATM   12  O   UNK     0      18.444  30.481 -12.399  0.00  0.00    -0.646 OA
BRANCH  11  13
HETATM   13  O   UNK     0      19.085  29.534 -14.364  0.00  0.00    -0.773 OA
HETATM   14  H   UNK     0      19.934  30.012 -14.238  0.00  0.00     0.167 HD
ENDBRANCH  11  13
ENDBRANCH   6  11
BRANCH   8  15
HETATM   15  O   UNK     0      16.829  25.215 -11.812  0.00  0.00    -0.358 OA
HETATM   16  H   UNK     0      17.790  25.062 -11.821  0.00  0.00     0.217 HD
ENDBRANCH   8  15
ENDBRANCH   1   3
TORSDOF 5
ENDMDL
MODEL 8
REMARK VINA RESULT:      -4.2      1.889      4.939
REMARK  5 active torsions:
REMARK  status: ('A' for Active; 'I' for Inactive)
REMARK    1  A    between atoms: O_1  and  C_7 
REMARK    2  A    between atoms: O_2  and  C_8 
REMARK    3  A    between atoms: O_3  and  C_9 
REMARK    4  A    between atoms: O_4  and  C_12 
REMARK    5  A    between atoms: C_6  and  C_12 
ROOT
HETATM    1  O   UNK     0      16.675  28.553 -13.720  0.00  0.00    -0.356 OA
HETATM    2  H   UNK     0      16.876  28.650 -14.667  0.00  0.00     0.218 HD
ENDROOT
BRANCH   1   3
HETATM    3  C   UNK     0      17.280  29.572 -13.046  0.00  0.00     0.132 A 
HETATM    4  C   UNK     0      18.498  30.081 -13.496  0.00  0.00     0.102 A 
HETATM    5  C   UNK     0      19.116  31.125 -12.808  0.00  0.00     0.057 A 
HETATM    6  C   UNK     0      18.517  31.660 -11.668  0.00  0.00     0.043 A 
HETATM    7  C   UNK     0      17.298  31.151 -11.218  0.00  0.00     0.057 A 
HETATM    8  C   UNK     0      16.680  30.108 -11.906  0.00  0.00     0.102 A 
BRANCH   4   9
HETATM    9  O   UNK     0      19.094  29.566 -14.608  0.00  0.00    -0.358 OA
HETATM   10  H   UNK     0      20.053  29.507 -14.456  0.00  0.00     0.217 HD
ENDBRANCH   4   9
BRANCH   6  11
HETATM   11  C   UNK     0      19.160  32.749 -10.951  0.00  0.00     0.176 C 
HETATM   12  O   UNK     0      18.697  33.885 -10.810  0.00  0.00    -0.646 OA
BRANCH  11  13
HETATM   13  O   UNK     0      20.364  32.388 -10.429  0.00  0.00    -0.773 OA
HETATM   14  H   UNK     0      20.277  31.659  -9.779  0.00  0.00     0.167 HD
ENDBRANCH  11  13
ENDBRANCH   6  11
BRANCH   8  15
HETATM   15  O   UNK     0      15.489  29.621 -11.456  0.00  0.00    -0.358 OA
HETATM   16  H   UNK     0      14.774  30.123 -11.883  0.00  0.00     0.217 HD
ENDBRANCH   8  15
ENDBRANCH   1   3
TORSDOF 5
ENDMDL
MODEL 9
REMARK VINA RESULT:      -4.1      2.651      3.543
REMARK  5 active torsions:
REMARK  status: ('A' for Active; 'I' for Inactive)
REMARK    1  A    between atoms: O_1  and  C_7 
REMARK    2  A    between atoms: O_2  and  C_8 
REMARK    3  A    between atoms: O_3  and  C_9 
REMARK    4  A    between atoms: O_4  and  C_12 
REMARK    5  A    between atoms: C_6  and  C_12 
ROOT
HETATM    1  O   UNK     0      20.445  33.967 -10.145  0.00  0.00    -0.356 OA
HETATM    2  H   UNK     0      21.304  34.250 -10.503  0.00  0.00     0.218 HD
ENDROOT
BRANCH   1   3
HETATM    3  C   UNK     0      19.921  33.024 -10.978  0.00  0.00     0.132 A 
HETATM    4  C   UNK     0      18.730  32.380 -10.643  0.00  0.00     0.102 A 
HETATM    5  C   UNK     0      18.194  31.416 -11.495  0.00  0.00     0.057 A 
HETATM    6  C   UNK     0      18.848  31.094 -12.684  0.00  0.00     0.043 A 
HETATM    7  C   UNK     0      20.039  31.739 -13.020  0.00  0.00     0.057 A 
HETATM    8  C   UNK     0      20.576  32.702 -12.168  0.00  0.00     0.102 A 
BRANCH   4   9
HETATM    9  O   UNK     0      18.082  32.685  -9.483  0.00  0.00    -0.358 OA
HETATM   10  H   UNK     0      18.267  33.611  -9.250  0.00  0.00     0.217 HD
ENDBRANCH   4   9
BRANCH   6  11
HETATM   11  C   UNK     0      18.288  30.090 -13.574  0.00  0.00     0.176 C 
HETATM   12  O   UNK     0      17.119  29.691 -13.557  0.00  0.00    -0.646 OA
BRANCH  11  13
HETATM   13  O   UNK     0      19.203  29.612 -14.461  0.00  0.00    -0.773 OA
HETATM   14  H   UNK     0      19.991  29.240 -14.008  0.00  0.00     0.167 HD
ENDBRANCH  11  13
ENDBRANCH   6  11
BRANCH   8  15
HETATM   15  O   UNK     0      21.739  33.326 -12.508  0.00  0.00    -0.358 OA
HETATM   16  H   UNK     0      21.686  33.580 -13.446  0.00  0.00     0.217 HD
ENDBRANCH   8  15
ENDBRANCH   1   3
TORSDOF 5
ENDMDL
