MODEL 1
REMARK VINA RESULT:      -5.7      0.000      0.000
REMARK  5 active torsions:
REMARK  status: ('A' for Active; 'I' for Inactive)
REMARK    1  A    between atoms: O_1  and  C_8 
REMARK    2  A    between atoms: O_2  and  C_9 
REMARK    3  A    between atoms: O_3  and  C_13 
REMARK    4  A    between atoms: C_5  and  C_11 
REMARK    5  A    between atoms: C_12  and  C_13 
ROOT
HETATM    1  O   UNK     0      15.427  25.902  -8.840  0.00  0.00    -0.358 OA
HETATM    2  H   UNK     0      14.534  25.700  -9.168  0.00  0.00     0.217 HD
ENDROOT
BRANCH   1   3
HETATM    3  C   UNK     0      16.294  25.840  -9.888  0.00  0.00     0.099 A 
HETATM    4  C   UNK     0      16.263  26.835 -10.865  0.00  0.00     0.050 A 
HETATM    5  C   UNK     0      17.147  26.783 -11.943  0.00  0.00    -0.033 A 
HETATM    6  C   UNK     0      18.062  25.735 -12.043  0.00  0.00     0.014 A 
HETATM    7  C   UNK     0      18.094  24.740 -11.066  0.00  0.00     0.040 A 
HETATM    8  C   UNK     0      17.209  24.793  -9.989  0.00  0.00     0.098 A 
BRANCH   5   9
HETATM    9  C   UNK     0      17.113  27.819 -12.962  0.00  0.00     0.018 C 
HETATM   10  C   UNK     0      18.031  28.778 -13.045  0.00  0.00     0.082 C 
BRANCH  10  11
HETATM   11  C   UNK     0      17.896  29.796 -14.109  0.00  0.00     0.165 C 
HETATM   12  O   UNK     0      16.934  30.519 -14.300  0.00  0.00    -0.647 OA
BRANCH  11  13
HETATM   13  O   UNK     0      19.027  29.800 -14.851  0.00  0.00    -0.773 OA
HETATM   14  H   UNK     0      19.119  28.981 -15.385  0.00  0.00     0.167 HD
ENDBRANCH  11  13
ENDBRANCH  10  11
ENDBRANCH   5   9
BRANCH   8  15
HETATM   15  O   UNK     0      17.250  23.816  -9.041  0.00  0.00    -0.358 OA
HETATM   16  H   UNK     0      16.798  23.025  -9.380  0.00  0.00     0.217 HD
ENDBRANCH   8  15
ENDBRANCH   1   3
TORSDOF 5
ENDMDL
MODEL 2
REMARK VINA RESULT:      -5.7      2.413      2.963
REMARK  5 active torsions:
REMARK  status: ('A' for Active; 'I' for Inactive)
REMARK    1  A    between atoms: O_1  and  C_8 
REMARK    2  A    between atoms: O_2  and  C_9 
REMARK    3  A    between atoms: O_3  and  C_13 
REMARK    4  A    between atoms: C_5  and  C_11 
REMARK    5  A    between atoms: C_12  and  C_13 
ROOT
HETATM    1  O   UNK     0      18.509  23.747 -12.330  0.00  0.00    -0.358 OA
HETATM    2  H   UNK     0      18.713  23.233 -13.130  0.00  0.00     0.217 HD
ENDROOT
BRANCH   1   3
HETATM    3  C   UNK     0      17.648  24.745 -12.670  0.00  0.00     0.099 A 
HETATM    4  C   UNK     0      17.969  26.066 -12.356  0.00  0.00     0.050 A 
HETATM    5  C   UNK     0      17.095  27.098 -12.700  0.00  0.00    -0.033 A 
HETATM    6  C   UNK     0      15.900  26.808 -13.359  0.00  0.00     0.014 A 
HETATM    7  C   UNK     0      15.579  25.487 -13.673  0.00  0.00     0.040 A 
HETATM    8  C   UNK     0      16.453  24.456 -13.328  0.00  0.00     0.098 A 
BRANCH   5   9
HETATM    9  C   UNK     0      17.429  28.474 -12.371  0.00  0.00     0.018 C 
HETATM   10  C   UNK     0      18.145  29.254 -13.177  0.00  0.00     0.082 C 
BRANCH  10  11
HETATM   11  C   UNK     0      18.444  30.634 -12.742  0.00  0.00     0.165 C 
HETATM   12  O   UNK     0      17.713  31.365 -12.096  0.00  0.00    -0.647 OA
BRANCH  11  13
HETATM   13  O   UNK     0      19.682  30.967 -13.178  0.00  0.00    -0.773 OA
HETATM   14  H   UNK     0      20.386  30.538 -12.646  0.00  0.00     0.167 HD
ENDBRANCH  11  13
ENDBRANCH  10  11
ENDBRANCH   5   9
BRANCH   8  15
HETATM   15  O   UNK     0      16.129  23.171 -13.641  0.00  0.00    -0.358 OA
HETATM   16  H   UNK     0      15.595  22.794 -12.921  0.00  0.00     0.217 HD
ENDBRANCH   8  15
ENDBRANCH   1   3
TORSDOF 5
ENDMDL
MODEL 3
REMARK VINA RESULT:      -5.6      2.512      2.739
REMARK  5 active torsions:
REMARK  status: ('A' for Active; 'I' for Inactive)
REMARK    1  A    between atoms: O_1  and  C_8 
REMARK    2  A    between atoms: O_2  and  C_9 
REMARK    3  A    between atoms: O_3  and  C_13 
REMARK    4  A    between atoms: C_5  and  C_11 
REMARK    5  A    between atoms: C_12  and  C_13 
ROOT
HETATM    1  O   UNK     0      14.648  24.737 -14.338  0.00  0.00    -0.358 OA
HETATM    2  H   UNK     0      14.406  25.468 -14.932  0.00  0.00     0.217 HD
ENDROOT
BRANCH   1   3
HETATM    3  C   UNK     0      15.742  25.112 -13.619  0.00  0.00     0.099 A 
HETATM    4  C   UNK     0      15.988  26.467 -13.398  0.00  0.00     0.050 A 
HETATM    5  C   UNK     0      17.105  26.864 -12.662  0.00  0.00    -0.033 A 
HETATM    6  C   UNK     0      17.976  25.904 -12.147  0.00  0.00     0.014 A 
HETATM    7  C   UNK     0      17.730  24.549 -12.368  0.00  0.00     0.040 A 
HETATM    8  C   UNK     0      16.614  24.153 -13.104  0.00  0.00     0.098 A 
BRANCH   5   9
HETATM    9  C   UNK     0      17.360  28.276 -12.433  0.00  0.00     0.018 C 
HETATM   10  C   UNK     0      18.142  29.005 -13.225  0.00  0.00     0.082 C 
BRANCH  10  11
HETATM   11  C   UNK     0      18.350  30.430 -12.894  0.00  0.00     0.165 C 
HETATM   12  O   UNK     0      17.568  31.160 -12.309  0.00  0.00    -0.647 OA
BRANCH  11  13
HETATM   13  O   UNK     0      19.568  30.807 -13.348  0.00  0.00    -0.773 OA
HETATM   14  H   UNK     0      19.808  31.711 -13.049  0.00  0.00     0.167 HD
ENDBRANCH  11  13
ENDBRANCH  10  11
ENDBRANCH   5   9
BRANCH   8  15
HETATM   15  O   UNK     0      16.385  22.827 -13.312  0.00  0.00    -0.358 OA
HETATM   16  H   UNK     0      16.352  22.656 -14.269  0.00  0.00     0.217 HD
ENDBRANCH   8  15
ENDBRANCH   1   3
TORSDOF 5
ENDMDL
MODEL 4
REMARK VINA RESULT:      -5.5      2.063      5.613
REMARK  5 active torsions:
REMARK  status: ('A' for Active; 'I' for Inactive)
REMARK    1  A    between atoms: O_1  and  C_8 
REMARK    2  A    between atoms: O_2  and  C_9 
REMARK    3  A    between atoms: O_3  and  C_13 
REMARK    4  A    between atoms: C_5  and  C_11 
REMARK    5  A    between atoms: C_12  and  C_13 
ROOT
HETATM    1  O   UNK     0      19.276  30.746 -13.772  0.00  0.00    -0.358 OA
HETATM    2  H   UNK     0      19.788  30.102 -14.289  0.00  0.00     0.217 HD
ENDROOT
BRANCH   1   3
HETATM    3  C   UNK     0      18.335  30.070 -13.056  0.00  0.00     0.099 A 
HETATM    4  C   UNK     0      18.229  28.686 -13.194  0.00  0.00     0.050 A 
HETATM    5  C   UNK     0      17.269  27.983 -12.465  0.00  0.00    -0.033 A 
HETATM    6  C   UNK     0      16.417  28.665 -11.596  0.00  0.00     0.014 A 
HETATM    7  C   UNK     0      16.523  30.049 -11.458  0.00  0.00     0.040 A 
HETATM    8  C   UNK     0      17.482  30.751 -12.188  0.00  0.00     0.098 A 
BRANCH   5   9
HETATM    9  C   UNK     0      17.159  26.541 -12.610  0.00  0.00     0.018 C 
HETATM   10  C   UNK     0      18.035  25.693 -12.078  0.00  0.00     0.082 C 
BRANCH  10  11
HETATM   11  C   UNK     0      17.841  24.245 -12.299  0.00  0.00     0.165 C 
HETATM   12  O   UNK     0      16.900  23.573 -11.913  0.00  0.00    -0.647 OA
BRANCH  11  13
HETATM   13  O   UNK     0      18.889  23.772 -13.012  0.00  0.00    -0.773 OA
HETATM   14  H   UNK     0      18.858  24.062 -13.949  0.00  0.00     0.167 HD
ENDBRANCH  11  13
ENDBRANCH  10  11
ENDBRANCH   5   9
BRANCH   8  15
HETATM   15  O   UNK     0      17.576  32.102 -12.043  0.00  0.00    -0.358 OA
HETATM   16  H   UNK     0      16.699  32.460 -11.824  0.00  0.00     0.217 HD
ENDBRANCH   8  15
ENDBRANCH   1   3
TORSDOF 5
ENDMDL
MODEL 5
REMARK VINA RESULT:      -5.4      2.569      5.172
REMARK  5 active torsions:
REMARK  status: ('A' for Active; 'I' for Inactive)
REMARK    1  A    between atoms: O_1  and  C_8 
REMARK    2  A    between atoms: O_2  and  C_9 
REMARK    3  A    between atoms: O_3  and  C_13 
REMARK    4  A    between atoms: C_5  and  C_11 
REMARK    5  A    between atoms: C_12  and  C_13 
ROOT
HETATM    1  O   UNK     0      15.751  30.577 -10.176  0.00  0.00    -0.358 OA
HETATM    2  H   UNK     0      15.061  31.124 -10.589  0.00  0.00     0.217 HD
ENDROOT
BRANCH   1   3
HETATM    3  C   UNK     0      16.515  30.031 -11.161  0.00  0.00     0.099 A 
HETATM    4  C   UNK     0      16.422  28.665 -11.425  0.00  0.00     0.050 A 
HETATM    5  C   UNK     0      17.200  28.094 -12.433  0.00  0.00    -0.033 A 
HETATM    6  C   UNK     0      18.069  28.891 -13.178  0.00  0.00     0.014 A 
HETATM    7  C   UNK     0      18.162  30.257 -12.914  0.00  0.00     0.040 A 
HETATM    8  C   UNK     0      17.385  30.827 -11.906  0.00  0.00     0.098 A 
BRANCH   5   9
HETATM    9  C   UNK     0      17.103  26.669 -12.707  0.00  0.00     0.018 C 
HETATM   10  C   UNK     0      17.963  25.781 -12.216  0.00  0.00     0.082 C 
BRANCH  10  11
HETATM   11  C   UNK     0      17.786  24.357 -12.569  0.00  0.00     0.165 C 
HETATM   12  O   UNK     0      18.330  23.405 -12.035  0.00  0.00    -0.647 OA
BRANCH  11  13
HETATM   13  O   UNK     0      16.910  24.271 -13.598  0.00  0.00    -0.773 OA
HETATM   14  H   UNK     0      16.137  23.710 -13.375  0.00  0.00     0.167 HD
ENDBRANCH  11  13
ENDBRANCH  10  11
ENDBRANCH   5   9
BRANCH   8  15
HETATM   15  O   UNK     0      17.484  32.163 -11.659  0.00  0.00    -0.358 OA
HETATM   16  H   UNK     0      18.309  32.336 -11.175  0.00  0.00     0.217 HD
ENDBRANCH   8  15
ENDBRANCH   1   3
TORSDOF 5
ENDMDL
MODEL 6
REMARK VINA RESULT:      -5.3      2.533      5.637
REMARK  5 active torsions:
REMARK  status: ('A' for Active; 'I' for Inactive)
REMARK    1  A    between atoms: O_1  and  C_8 
REMARK    2  A    between atoms: O_2  and  C_9 
REMARK    3  A    between atoms: O_3  and  C_13 
REMARK    4  A    between atoms: C_5  and  C_11 
REMARK    5  A    between atoms: C_12  and  C_13 
ROOT
HETATM    1  O   UNK     0      17.824  31.830 -10.584  0.00  0.00    -0.358 OA
HETATM    2  H   UNK     0      18.421  31.495  -9.894  0.00  0.00     0.217 HD
ENDROOT
BRANCH   1   3
HETATM    3  C   UNK     0      17.984  31.065 -11.699  0.00  0.00     0.099 A 
HETATM    4  C   UNK     0      17.393  29.803 -11.758  0.00  0.00     0.050 A 
HETATM    5  C   UNK     0      17.550  29.011 -12.896  0.00  0.00    -0.033 A 
HETATM    6  C   UNK     0      18.298  29.482 -13.975  0.00  0.00     0.014 A 
HETATM    7  C   UNK     0      18.889  30.744 -13.916  0.00  0.00     0.040 A 
HETATM    8  C   UNK     0      18.732  31.535 -12.778  0.00  0.00     0.098 A 
BRANCH   5   9
HETATM    9  C   UNK     0      16.935  27.695 -12.956  0.00  0.00     0.018 C 
HETATM   10  C   UNK     0      17.523  26.601 -12.479  0.00  0.00     0.082 C 
BRANCH  10  11
HETATM   11  C   UNK     0      16.818  25.308 -12.606  0.00  0.00     0.165 C 
HETATM   12  O   UNK     0      16.853  24.384 -11.812  0.00  0.00    -0.647 OA
BRANCH  11  13
HETATM   13  O   UNK     0      16.115  25.310 -13.762  0.00  0.00    -0.773 OA
HETATM   14  H   UNK     0      15.917  26.220 -14.071  0.00  0.00     0.167 HD
ENDBRANCH  11  13
ENDBRANCH  10  11
ENDBRANCH   5   9
BRANCH   8  15
HETATM   15  O   UNK     0      19.313  32.766 -12.733  0.00  0.00    -0.358 OA
HETATM   16  H   UNK     0      19.351  33.132 -13.633  0.00  0.00     0.217 HD
ENDBRANCH   8  15
ENDBRANCH   1   3
TORSDOF 5
ENDMDL
MODEL 7
REMARK VINA RESULT:      -5.1      1.724      2.200
REMARK  5 active torsions:
REMARK  status: ('A' for Active; 'I' for Inactive)
REMARK    1  A    between atoms: O_1  and  C_8 
REMARK    2  A    between atoms: O_2  and  C_9 
REMARK    3  A    between atoms: O_3  and  C_13 
REMARK    4  A    between atoms: C_5  and  C_11 
REMARK    5  A    between atoms: C_12  and  C_13 
ROOT
HETATM    1  O   UNK     0      13.937  27.726 -11.055  0.00  0.00    -0.358 OA
HETATM    2  H   UNK     0      13.395  27.989 -11.818  0.00  0.00     0.217 HD
ENDROOT
BRANCH   1   3
HETATM    3  C   UNK     0      15.174  27.379 -11.505  0.00  0.00     0.099 A 
HETATM    4  C   UNK     0      15.961  28.331 -12.154  0.00  0.00     0.050 A 
HETATM    5  C   UNK     0      17.231  27.987 -12.620  0.00  0.00    -0.033 A 
HETATM    6  C   UNK     0      17.713  26.691 -12.434  0.00  0.00     0.014 A 
HETATM    7  C   UNK     0      16.926  25.740 -11.786  0.00  0.00     0.040 A 
HETATM    8  C   UNK     0      15.657  26.084 -11.322  0.00  0.00     0.098 A 
BRANCH   5   9
HETATM    9  C   UNK     0      18.050  28.979 -13.297  0.00  0.00     0.018 C 
HETATM   10  C   UNK     0      18.259  30.198 -12.806  0.00  0.00     0.082 C 
BRANCH  10  11
HETATM   11  C   UNK     0      19.095  31.137 -13.582  0.00  0.00     0.165 C 
HETATM   12  O   UNK     0      18.794  31.676 -14.633  0.00  0.00    -0.647 OA
BRANCH  11  13
HETATM   13  O   UNK     0      20.270  31.311 -12.931  0.00  0.00    -0.773 OA
HETATM   14  H   UNK     0      20.947  31.732 -13.503  0.00  0.00     0.167 HD
ENDBRANCH  11  13
ENDBRANCH  10  11
ENDBRANCH   5   9
BRANCH   8  15
HETATM   15  O   UNK     0      14.898  25.146 -10.689  0.00  0.00    -0.358 OA
HETATM   16  H   UNK     0      14.408  25.571  -9.964  0.00  0.00     0.217 HD
ENDBRANCH   8  15
ENDBRANCH   1   3
TORSDOF 5
ENDMDL
MODEL 8
REMARK VINA RESULT:      -5.0      3.666      5.260
REMARK  5 active torsions:
REMARK  status: ('A' for Active; 'I' for Inactive)
REMARK    1  A    between atoms: O_1  and  C_8 
REMARK    2  A    between atoms: O_2  and  C_9 
REMARK    3  A    between atoms: O_3  and  C_13 
REMARK    4  A    between atoms: C_5  and  C_11 
REMARK    5  A    between atoms: C_12  and  C_13 
ROOT
HETATM    1  O   UNK     0      16.919  22.986  -9.133  0.00  0.00    -0.358 OA
HETATM    2  H   UNK     0      17.422  22.154  -9.117  0.00  0.00     0.217 HD
ENDROOT
BRANCH   1   3
HETATM    3  C   UNK     0      17.322  23.711 -10.213  0.00  0.00     0.099 A 
HETATM    4  C   UNK     0      17.852  23.053 -11.323  0.00  0.00     0.050 A 
HETATM    5  C   UNK     0      18.268  23.786 -12.436  0.00  0.00    -0.033 A 
HETATM    6  C   UNK     0      18.152  25.175 -12.438  0.00  0.00     0.014 A 
HETATM    7  C   UNK     0      17.622  25.833 -11.328  0.00  0.00     0.040 A 
HETATM    8  C   UNK     0      17.207  25.101 -10.216  0.00  0.00     0.098 A 
BRANCH   5   9
HETATM    9  C   UNK     0      18.821  23.099 -13.592  0.00  0.00     0.018 C 
HETATM   10  C   UNK     0      19.947  22.393 -13.541  0.00  0.00     0.082 C 
BRANCH  10  11
HETATM   11  C   UNK     0      20.433  21.748 -14.778  0.00  0.00     0.165 C 
HETATM   12  O   UNK     0      20.773  20.583 -14.903  0.00  0.00    -0.647 OA
BRANCH  11  13
HETATM   13  O   UNK     0      20.443  22.667 -15.771  0.00  0.00    -0.773 OA
HETATM   14  H   UNK     0      20.026  23.511 -15.494  0.00  0.00     0.167 HD
ENDBRANCH  11  13
ENDBRANCH  10  11
ENDBRANCH   5   9
BRANCH   8  15
HETATM   15  O   UNK     0      16.690  25.755  -9.139  0.00  0.00    -0.358 OA
HETATM   16  H   UNK     0      17.338  26.408  -8.823  0.00  0.00     0.217 HD
ENDBRANCH   8  15
ENDBRANCH   1   3
TORSDOF 5
ENDMDL
MODEL 9
REMARK VINA RESULT:      -5.0      1.651      5.809
REMARK  5 active torsions:
REMARK  status: ('A' for Active; 'I' for Inactive)
REMARK    1  A    between atoms: O_1  and  C_8 
REMARK    2  A    between atoms: O_2  and  C_9 
REMARK    3  A    between atoms: O_3  and  C_13 
REMARK    4  A    between atoms: C_5  and  C_11 
REMARK    5  A    between atoms: C_12  and  C_13 
ROOT
HETATM    1  O   UNK     0      14.392  29.495 -15.031  0.00  0.00    -0.358 OA
HETATM    2  H   UNK     0      14.299  30.418 -15.321  0.00  0.00     0.217 HD
ENDROOT
BRANCH   1   3
HETATM    3  C   UNK     0      15.623  29.344 -14.468  0.00  0.00     0.099 A 
HETATM    4  C   UNK     0      15.837  28.317 -13.548  0.00  0.00     0.050 A 
HETATM    5  C   UNK     0      17.094  28.152 -12.965  0.00  0.00    -0.033 A 
HETATM    6  C   UNK     0      18.137  29.013 -13.305  0.00  0.00     0.014 A 
HETATM    7  C   UNK     0      17.924  30.040 -14.225  0.00  0.00     0.040 A 
HETATM    8  C   UNK     0      16.667  30.205 -14.806  0.00  0.00     0.098 A 
BRANCH   5   9
HETATM    9  C   UNK     0      17.316  27.083 -12.006  0.00  0.00     0.018 C 
HETATM   10  C   UNK     0      17.891  25.929 -12.332  0.00  0.00     0.082 C 
BRANCH  10  11
HETATM   11  C   UNK     0      18.055  24.900 -11.284  0.00  0.00     0.165 C 
HETATM   12  O   UNK     0      17.999  25.078 -10.079  0.00  0.00    -0.647 OA
BRANCH  11  13
HETATM   13  O   UNK     0      18.279  23.706 -11.881  0.00  0.00    -0.773 OA
HETATM   14  H   UNK     0      19.203  23.625 -12.203  0.00  0.00     0.167 HD
ENDBRANCH  11  13
ENDBRANCH  10  11
ENDBRANCH   5   9
BRANCH   8  15
HETATM   15  O   UNK     0      16.471  31.210 -15.704  0.00  0.00    -0.358 OA
HETATM   16  H   UNK     0      16.658  32.061 -15.274  0.00  0.00     0.217 HD
ENDBRANCH   8  15
ENDBRANCH   1   3
TORSDOF 5
ENDMDL
