MODEL 1
REMARK VINA RESULT:      -6.4      0.000      0.000
REMARK  5 active torsions:
REMARK  status: ('A' for Active; 'I' for Inactive)
REMARK    1  A    between atoms: O_1  and  C_7 
REMARK    2  A    between atoms: O_2  and  C_8 
REMARK    3  A    between atoms: O_3  and  C_9 
REMARK    4  A    between atoms: O_4  and  C_12 
REMARK    5  A    between atoms: C_6  and  C_12 
ROOT
HETATM    1  O   UNK     0      27.819 -22.851 -17.593  0.00  0.00    -0.356 OA
HETATM    2  H   UNK     0      27.694 -23.816 -17.595  0.00  0.00     0.218 HD
ENDROOT
BRANCH   1   3
HETATM    3  C   UNK     0      27.933 -22.431 -18.885  0.00  0.00     0.132 A 
HETATM    4  C   UNK     0      27.195 -23.057 -19.890  0.00  0.00     0.102 A 
HETATM    5  C   UNK     0      27.311 -22.627 -21.212  0.00  0.00     0.057 A 
HETATM    6  C   UNK     0      28.165 -21.571 -21.530  0.00  0.00     0.043 A 
HETATM    7  C   UNK     0      28.903 -20.945 -20.524  0.00  0.00     0.057 A 
HETATM    8  C   UNK     0      28.787 -21.375 -19.203  0.00  0.00     0.102 A 
BRANCH   4   9
HETATM    9  O   UNK     0      26.358 -24.090 -19.593  0.00  0.00    -0.358 OA
HETATM   10  H   UNK     0      25.885 -24.359 -20.400  0.00  0.00     0.217 HD
ENDBRANCH   4   9
BRANCH   6  11
HETATM   11  C   UNK     0      28.285 -21.122 -22.908  0.00  0.00     0.176 C 
HETATM   12  O   UNK     0      28.123 -19.961 -23.298  0.00  0.00    -0.646 OA
BRANCH  11  13
HETATM   13  O   UNK     0      28.603 -22.135 -23.759  0.00  0.00    -0.773 OA
HETATM   14  H   UNK     0      27.809 -22.639 -24.040  0.00  0.00     0.167 HD
ENDBRANCH  11  13
ENDBRANCH   6  11
BRANCH   8  15
HETATM   15  O   UNK     0      29.512 -20.754 -18.231  0.00  0.00    -0.358 OA
HETATM   16  H   UNK     0      30.008 -21.431 -17.740  0.00  0.00     0.217 HD
ENDBRANCH   8  15
ENDBRANCH   1   3
TORSDOF 5
ENDMDL
MODEL 2
REMARK VINA RESULT:      -6.3      0.844      2.427
REMARK  5 active torsions:
REMARK  status: ('A' for Active; 'I' for Inactive)
REMARK    1  A    between atoms: O_1  and  C_7 
REMARK    2  A    between atoms: O_2  and  C_8 
REMARK    3  A    between atoms: O_3  and  C_9 
REMARK    4  A    between atoms: O_4  and  C_12 
REMARK    5  A    between atoms: C_6  and  C_12 
ROOT
HETATM    1  O   UNK     0      27.457 -23.706 -18.071  0.00  0.00    -0.356 OA
HETATM    2  H   UNK     0      27.723 -24.621 -18.268  0.00  0.00     0.218 HD
ENDROOT
BRANCH   1   3
HETATM    3  C   UNK     0      27.597 -22.963 -19.205  0.00  0.00     0.132 A 
HETATM    4  C   UNK     0      28.750 -22.206 -19.406  0.00  0.00     0.102 A 
HETATM    5  C   UNK     0      28.894 -21.447 -20.567  0.00  0.00     0.057 A 
HETATM    6  C   UNK     0      27.883 -21.444 -21.528  0.00  0.00     0.043 A 
HETATM    7  C   UNK     0      26.729 -22.202 -21.328  0.00  0.00     0.057 A 
HETATM    8  C   UNK     0      26.585 -22.961 -20.167  0.00  0.00     0.102 A 
BRANCH   4   9
HETATM    9  O   UNK     0      29.744 -22.199 -18.474  0.00  0.00    -0.358 OA
HETATM   10  H   UNK     0      30.583 -22.446 -18.902  0.00  0.00     0.217 HD
ENDBRANCH   4   9
BRANCH   6  11
HETATM   11  C   UNK     0      28.033 -20.653 -22.739  0.00  0.00     0.176 C 
HETATM   12  O   UNK     0      27.649 -19.488 -22.885  0.00  0.00    -0.646 OA
BRANCH  11  13
HETATM   13  O   UNK     0      28.660 -21.339 -23.734  0.00  0.00    -0.773 OA
HETATM   14  H   UNK     0      29.485 -21.766 -23.419  0.00  0.00     0.167 HD
ENDBRANCH  11  13
ENDBRANCH   6  11
BRANCH   8  15
HETATM   15  O   UNK     0      25.454 -23.698 -19.984  0.00  0.00    -0.358 OA
HETATM   16  H   UNK     0      25.007 -23.378 -19.181  0.00  0.00     0.217 HD
ENDBRANCH   8  15
ENDBRANCH   1   3
TORSDOF 5
ENDMDL
MODEL 3
REMARK VINA RESULT:      -6.2      2.923      3.883
REMARK  5 active torsions:
REMARK  status: ('A' for Active; 'I' for Inactive)
REMARK    1  A    between atoms: O_1  and  C_7 
REMARK    2  A    between atoms: O_2  and  C_8 
REMARK    3  A    between atoms: O_3  and  C_9 
REMARK    4  A    between atoms: O_4  and  C_12 
REMARK    5  A    between atoms: C_6  and  C_12 
ROOT
HETATM    1  O   UNK     0      24.639 -20.517 -15.854  0.00  0.00    -0.356 OA
HETATM    2  H   UNK     0      24.816 -19.674 -15.401  0.00  0.00     0.218 HD
ENDROOT
BRANCH   1   3
HETATM    3  C   UNK     0      25.603 -20.707 -16.799  0.00  0.00     0.132 A 
HETATM    4  C   UNK     0      25.603 -19.936 -17.961  0.00  0.00     0.102 A 
HETATM    5  C   UNK     0      26.590 -20.130 -18.927  0.00  0.00     0.057 A 
HETATM    6  C   UNK     0      27.576 -21.096 -18.733  0.00  0.00     0.043 A 
HETATM    7  C   UNK     0      27.576 -21.868 -17.570  0.00  0.00     0.057 A 
HETATM    8  C   UNK     0      26.590 -21.674 -16.604  0.00  0.00     0.102 A 
BRANCH   4   9
HETATM    9  O   UNK     0      24.644 -18.989 -18.163  0.00  0.00    -0.358 OA
HETATM   10  H   UNK     0      24.200 -18.801 -17.317  0.00  0.00     0.217 HD
ENDBRANCH   4   9
BRANCH   6  11
HETATM   11  C   UNK     0      28.606 -21.298 -19.740  0.00  0.00     0.176 C 
HETATM   12  O   UNK     0      28.421 -21.299 -20.962  0.00  0.00    -0.646 OA
BRANCH  11  13
HETATM   13  O   UNK     0      29.837 -21.492 -19.194  0.00  0.00    -0.773 OA
HETATM   14  H   UNK     0      30.487 -21.804 -19.860  0.00  0.00     0.167 HD
ENDBRANCH  11  13
ENDBRANCH   6  11
BRANCH   8  15
HETATM   15  O   UNK     0      26.603 -22.433 -15.472  0.00  0.00    -0.358 OA
HETATM   16  H   UNK     0      27.529 -22.590 -15.220  0.00  0.00     0.217 HD
ENDBRANCH   8  15
ENDBRANCH   1   3
TORSDOF 5
ENDMDL
MODEL 4
REMARK VINA RESULT:      -6.2      2.480      4.059
REMARK  5 active torsions:
REMARK  status: ('A' for Active; 'I' for Inactive)
REMARK    1  A    between atoms: O_1  and  C_7 
REMARK    2  A    between atoms: O_2  and  C_8 
REMARK    3  A    between atoms: O_3  and  C_9 
REMARK    4  A    between atoms: O_4  and  C_12 
REMARK    5  A    between atoms: C_6  and  C_12 
ROOT
HETATM    1  O   UNK     0      24.858 -23.206 -20.553  0.00  0.00    -0.356 OA
HETATM    2  H   UNK     0      24.744 -24.147 -20.331  0.00  0.00     0.218 HD
ENDROOT
BRANCH   1   3
HETATM    3  C   UNK     0      25.884 -22.709 -19.806  0.00  0.00     0.132 A 
HETATM    4  C   UNK     0      26.584 -23.546 -18.937  0.00  0.00     0.102 A 
HETATM    5  C   UNK     0      27.634 -23.038 -18.173  0.00  0.00     0.057 A 
HETATM    6  C   UNK     0      27.986 -21.692 -18.277  0.00  0.00     0.043 A 
HETATM    7  C   UNK     0      27.286 -20.855 -19.147  0.00  0.00     0.057 A 
HETATM    8  C   UNK     0      26.235 -21.363 -19.911  0.00  0.00     0.102 A 
BRANCH   4   9
HETATM    9  O   UNK     0      26.249 -24.862 -18.825  0.00  0.00    -0.358 OA
HETATM   10  H   UNK     0      25.285 -24.955 -18.920  0.00  0.00     0.217 HD
ENDBRANCH   4   9
BRANCH   6  11
HETATM   11  C   UNK     0      29.082 -21.163 -17.482  0.00  0.00     0.176 C 
HETATM   12  O   UNK     0      29.289 -21.416 -16.291  0.00  0.00    -0.646 OA
BRANCH  11  13
HETATM   13  O   UNK     0      29.888 -20.332 -18.196  0.00  0.00    -0.773 OA
HETATM   14  H   UNK     0      30.824 -20.391 -17.906  0.00  0.00     0.167 HD
ENDBRANCH  11  13
ENDBRANCH   6  11
BRANCH   8  15
HETATM   15  O   UNK     0      25.561 -20.535 -20.758  0.00  0.00    -0.358 OA
HETATM   16  H   UNK     0      26.153 -20.304 -21.494  0.00  0.00     0.217 HD
ENDBRANCH   8  15
ENDBRANCH   1   3
TORSDOF 5
ENDMDL
MODEL 5
REMARK VINA RESULT:      -5.9      3.346      4.581
REMARK  5 active torsions:
REMARK  status: ('A' for Active; 'I' for Inactive)
REMARK    1  A    between atoms: O_1  and  C_7 
REMARK    2  A    between atoms: O_2  and  C_8 
REMARK    3  A    between atoms: O_3  and  C_9 
REMARK    4  A    between atoms: O_4  and  C_12 
REMARK    5  A    between atoms: C_6  and  C_12 
ROOT
HETATM    1  O   UNK     0      23.673 -23.327 -17.135  0.00  0.00    -0.356 OA
HETATM    2  H   UNK     0      23.711 -24.248 -16.823  0.00  0.00     0.218 HD
ENDROOT
BRANCH   1   3
HETATM    3  C   UNK     0      24.946 -22.845 -17.208  0.00  0.00     0.132 A 
HETATM    4  C   UNK     0      25.880 -23.463 -18.040  0.00  0.00     0.102 A 
HETATM    5  C   UNK     0      27.182 -22.969 -18.116  0.00  0.00     0.057 A 
HETATM    6  C   UNK     0      27.552 -21.858 -17.360  0.00  0.00     0.043 A 
HETATM    7  C   UNK     0      26.618 -21.239 -16.527  0.00  0.00     0.057 A 
HETATM    8  C   UNK     0      25.316 -21.733 -16.451  0.00  0.00     0.102 A 
BRANCH   4   9
HETATM    9  O   UNK     0      25.530 -24.550 -18.784  0.00  0.00    -0.358 OA
HETATM   10  H   UNK     0      24.764 -24.985 -18.371  0.00  0.00     0.217 HD
ENDBRANCH   4   9
BRANCH   6  11
HETATM   11  C   UNK     0      28.910 -21.343 -17.440  0.00  0.00     0.176 C 
HETATM   12  O   UNK     0      29.428 -20.846 -18.445  0.00  0.00    -0.646 OA
BRANCH  11  13
HETATM   13  O   UNK     0      29.581 -21.462 -16.262  0.00  0.00    -0.773 OA
HETATM   14  H   UNK     0      30.554 -21.447 -16.393  0.00  0.00     0.167 HD
ENDBRANCH  11  13
ENDBRANCH   6  11
BRANCH   8  15
HETATM   15  O   UNK     0      24.414 -21.118 -15.636  0.00  0.00    -0.358 OA
HETATM   16  H   UNK     0      23.949 -21.803 -15.124  0.00  0.00     0.217 HD
ENDBRANCH   8  15
ENDBRANCH   1   3
TORSDOF 5
ENDMDL
MODEL 6
REMARK VINA RESULT:      -5.9      1.772      1.997
REMARK  5 active torsions:
REMARK  status: ('A' for Active; 'I' for Inactive)
REMARK    1  A    between atoms: O_1  and  C_7 
REMARK    2  A    between atoms: O_2  and  C_8 
REMARK    3  A    between atoms: O_3  and  C_9 
REMARK    4  A    between atoms: O_4  and  C_12 
REMARK    5  A    between atoms: C_6  and  C_12 
ROOT
HETATM    1  O   UNK     0      25.388 -21.868 -18.087  0.00  0.00    -0.356 OA
HETATM    2  H   UNK     0      24.518 -21.449 -18.208  0.00  0.00     0.218 HD
ENDROOT
BRANCH   1   3
HETATM    3  C   UNK     0      26.088 -21.751 -19.251  0.00  0.00     0.132 A 
HETATM    4  C   UNK     0      26.499 -22.894 -19.937  0.00  0.00     0.102 A 
HETATM    5  C   UNK     0      27.214 -22.774 -21.128  0.00  0.00     0.057 A 
HETATM    6  C   UNK     0      27.521 -21.511 -21.634  0.00  0.00     0.043 A 
HETATM    7  C   UNK     0      27.110 -20.367 -20.947  0.00  0.00     0.057 A 
HETATM    8  C   UNK     0      26.394 -20.487 -19.757  0.00  0.00     0.102 A 
BRANCH   4   9
HETATM    9  O   UNK     0      26.207 -24.133 -19.452  0.00  0.00    -0.358 OA
HETATM   10  H   UNK     0      25.250 -24.191 -19.283  0.00  0.00     0.217 HD
ENDBRANCH   4   9
BRANCH   6  11
HETATM   11  C   UNK     0      28.266 -21.385 -22.876  0.00  0.00     0.176 C 
HETATM   12  O   UNK     0      28.362 -22.259 -23.744  0.00  0.00    -0.646 OA
BRANCH  11  13
HETATM   13  O   UNK     0      28.870 -20.172 -23.000  0.00  0.00    -0.773 OA
HETATM   14  H   UNK     0      28.945 -19.896 -23.939  0.00  0.00     0.167 HD
ENDBRANCH  11  13
ENDBRANCH   6  11
BRANCH   8  15
HETATM   15  O   UNK     0      25.997 -19.362 -19.097  0.00  0.00    -0.358 OA
HETATM   16  H   UNK     0      26.031 -19.541 -18.142  0.00  0.00     0.217 HD
ENDBRANCH   8  15
ENDBRANCH   1   3
TORSDOF 5
ENDMDL
MODEL 7
REMARK VINA RESULT:      -5.7      2.698      4.648
REMARK  5 active torsions:
REMARK  status: ('A' for Active; 'I' for Inactive)
REMARK    1  A    between atoms: O_1  and  C_7 
REMARK    2  A    between atoms: O_2  and  C_8 
REMARK    3  A    between atoms: O_3  and  C_9 
REMARK    4  A    between atoms: O_4  and  C_12 
REMARK    5  A    between atoms: C_6  and  C_12 
ROOT
HETATM    1  O   UNK     0      27.033 -23.760 -21.469  0.00  0.00    -0.356 OA
HETATM    2  H   UNK     0      26.318 -23.954 -22.099  0.00  0.00     0.218 HD
ENDROOT
BRANCH   1   3
HETATM    3  C   UNK     0      26.591 -22.812 -20.595  0.00  0.00     0.132 A 
HETATM    4  C   UNK     0      26.700 -21.460 -20.918  0.00  0.00     0.102 A 
HETATM    5  C   UNK     0      26.248 -20.490 -20.024  0.00  0.00     0.057 A 
HETATM    6  C   UNK     0      25.686 -20.871 -18.806  0.00  0.00     0.043 A 
HETATM    7  C   UNK     0      25.577 -22.224 -18.483  0.00  0.00     0.057 A 
HETATM    8  C   UNK     0      26.030 -23.194 -19.376  0.00  0.00     0.102 A 
BRANCH   4   9
HETATM    9  O   UNK     0      27.248 -21.074 -22.105  0.00  0.00    -0.358 OA
HETATM   10  H   UNK     0      27.336 -21.853 -22.682  0.00  0.00     0.217 HD
ENDBRANCH   4   9
BRANCH   6  11
HETATM   11  C   UNK     0      25.213 -19.859 -17.875  0.00  0.00     0.176 C 
HETATM   12  O   UNK     0      24.942 -18.690 -18.165  0.00  0.00    -0.646 OA
BRANCH  11  13
HETATM   13  O   UNK     0      25.092 -20.337 -16.606  0.00  0.00    -0.773 OA
HETATM   14  H   UNK     0      25.065 -21.318 -16.586  0.00  0.00     0.167 HD
ENDBRANCH  11  13
ENDBRANCH   6  11
BRANCH   8  15
HETATM   15  O   UNK     0      25.915 -24.512 -19.049  0.00  0.00    -0.358 OA
HETATM   16  H   UNK     0      25.198 -24.604 -18.398  0.00  0.00     0.217 HD
ENDBRANCH   8  15
ENDBRANCH   1   3
TORSDOF 5
ENDMDL
MODEL 8
REMARK VINA RESULT:      -5.7      3.300      5.673
REMARK  5 active torsions:
REMARK  status: ('A' for Active; 'I' for Inactive)
REMARK    1  A    between atoms: O_1  and  C_7 
REMARK    2  A    between atoms: O_2  and  C_8 
REMARK    3  A    between atoms: O_3  and  C_9 
REMARK    4  A    between atoms: O_4  and  C_12 
REMARK    5  A    between atoms: C_6  and  C_12 
ROOT
HETATM    1  O   UNK     0      25.836 -23.229 -21.092  0.00  0.00    -0.356 OA
HETATM    2  H   UNK     0      24.948 -23.233 -21.488  0.00  0.00     0.218 HD
ENDROOT
BRANCH   1   3
HETATM    3  C   UNK     0      25.724 -22.849 -19.787  0.00  0.00     0.132 A 
HETATM    4  C   UNK     0      25.550 -21.503 -19.465  0.00  0.00     0.102 A 
HETATM    5  C   UNK     0      25.434 -21.114 -18.131  0.00  0.00     0.057 A 
HETATM    6  C   UNK     0      25.492 -22.070 -17.118  0.00  0.00     0.043 A 
HETATM    7  C   UNK     0      25.665 -23.417 -17.440  0.00  0.00     0.057 A 
HETATM    8  C   UNK     0      25.781 -23.806 -18.774  0.00  0.00     0.102 A 
BRANCH   4   9
HETATM    9  O   UNK     0      25.493 -20.558 -20.446  0.00  0.00    -0.358 OA
HETATM   10  H   UNK     0      25.935 -19.749 -20.134  0.00  0.00     0.217 HD
ENDBRANCH   4   9
BRANCH   6  11
HETATM   11  C   UNK     0      25.369 -21.665 -15.726  0.00  0.00     0.176 C 
HETATM   12  O   UNK     0      25.915 -22.222 -14.768  0.00  0.00    -0.646 OA
BRANCH  11  13
HETATM   13  O   UNK     0      24.569 -20.575 -15.571  0.00  0.00    -0.773 OA
HETATM   14  H   UNK     0      24.447 -20.088 -16.414  0.00  0.00     0.167 HD
ENDBRANCH  11  13
ENDBRANCH   6  11
BRANCH   8  15
HETATM   15  O   UNK     0      25.948 -25.124 -19.075  0.00  0.00    -0.358 OA
HETATM   16  H   UNK     0      25.594 -25.653 -18.339  0.00  0.00     0.217 HD
ENDBRANCH   8  15
ENDBRANCH   1   3
TORSDOF 5
ENDMDL
MODEL 9
REMARK VINA RESULT:      -5.4      3.762      5.809
REMARK  5 active torsions:
REMARK  status: ('A' for Active; 'I' for Inactive)
REMARK    1  A    between atoms: O_1  and  C_7 
REMARK    2  A    between atoms: O_2  and  C_8 
REMARK    3  A    between atoms: O_3  and  C_9 
REMARK    4  A    between atoms: O_4  and  C_12 
REMARK    5  A    between atoms: C_6  and  C_12 
ROOT
HETATM    1  O   UNK     0      25.164 -20.657 -20.227  0.00  0.00    -0.356 OA
HETATM    2  H   UNK     0      24.245 -20.677 -20.546  0.00  0.00     0.218 HD
ENDROOT
BRANCH   1   3
HETATM    3  C   UNK     0      25.219 -21.316 -19.035  0.00  0.00     0.132 A 
HETATM    4  C   UNK     0      24.895 -22.671 -18.971  0.00  0.00     0.102 A 
HETATM    5  C   UNK     0      24.953 -23.345 -17.752  0.00  0.00     0.057 A 
HETATM    6  C   UNK     0      25.334 -22.666 -16.595  0.00  0.00     0.043 A 
HETATM    7  C   UNK     0      25.659 -21.310 -16.659  0.00  0.00     0.057 A 
HETATM    8  C   UNK     0      25.601 -20.636 -17.878  0.00  0.00     0.102 A 
BRANCH   4   9
HETATM    9  O   UNK     0      24.520 -23.346 -20.093  0.00  0.00    -0.358 OA
HETATM   10  H   UNK     0      25.204 -23.234 -20.776  0.00  0.00     0.217 HD
ENDBRANCH   4   9
BRANCH   6  11
HETATM   11  C   UNK     0      25.395 -23.369 -15.324  0.00  0.00     0.176 C 
HETATM   12  O   UNK     0      24.698 -24.339 -15.009  0.00  0.00    -0.646 OA
BRANCH  11  13
HETATM   13  O   UNK     0      26.325 -22.842 -14.482  0.00  0.00    -0.773 OA
HETATM   14  H   UNK     0      26.104 -21.921 -14.225  0.00  0.00     0.167 HD
ENDBRANCH  11  13
ENDBRANCH   6  11
BRANCH   8  15
HETATM   15  O   UNK     0      25.923 -19.312 -17.928  0.00  0.00    -0.358 OA
HETATM   16  H   UNK     0      25.099 -18.796 -17.894  0.00  0.00     0.217 HD
ENDBRANCH   8  15
ENDBRANCH   1   3
TORSDOF 5
ENDMDL
